138
Lattice="   32.0000000    0.00000000    0.00000000    0.00000000    18.0000000    0.00000000    0.00000000    0.00000000    58.0000000"
H   23.2268290554   14.4558368613   53.5355457859
C   22.4514783184   14.0600106107   52.8729075407
H   21.4743433951   14.1792674943   53.3514588135
H   22.6407260667   12.9969166071   52.6931335068
C   22.4904432708   14.8229256730   51.5667178080
F   23.7557723430   14.6948532633   51.0233571353
F   22.3243866708   16.1691995996   51.8386867366
C   21.4324276825   14.3395440353   50.5650368434
H   20.4551268498   14.4453611358   51.0538144814
H   21.6093492830   13.2682329730   50.4014449180
C   21.3570892493   15.0283494968   49.1956915464
F   22.5679793296   14.9155580071   48.5518901078
F   21.1227604900   16.3715712051   49.3763367436
C   20.2470698945   14.4240436549   48.3095362599
H   19.2933507847   14.5146564870   48.8425352103
H   20.4558744745   13.3544352738   48.1867729582
C   20.0897591594   15.0509384958   46.9163689263
F   21.2848207568   14.9403380949   46.2443497482
F   19.8310837870   16.3937115532   47.0566891768
C   18.9744230235   14.4106246640   46.0616372214
H   18.0159632328   14.5248493371   46.5821667059
H   19.1800606702   13.3367956753   45.9521600090
C   18.8367717638   15.0351045552   44.6630259537
F   20.0238207622   14.9253010501   43.9828657837
F   18.5498551807   16.3646031858   44.7865856431
C   17.7573284202   14.3528189237   43.7717702364
F   16.5452250117   14.3265564498   44.4627162304
H   18.0705196793   13.3133651807   43.6005743691
C   17.5535158214   15.0307254557   42.3806706661
F   18.7615656096   14.9447947722   41.7337826139
F   17.2640282752   16.3537640953   42.5588540284
C   16.4581927372   14.3855956976   41.5161901683
H   15.5047754956   14.4770225021   42.0474135833
H   16.6798098569   13.3179079224   41.3920993997
C   16.3132318070   15.0214291972   40.1179446258
F   17.5127422540   14.9156328298   39.4562350383
F   16.0534400940   16.3641334313   40.2620457209
C   15.2033070910   14.3863705089   39.2551518503
H   14.2469133169   14.4933191357   39.7843492879
H   15.4134809867   13.3177761292   39.1318081808
C   15.0632544515   15.0133384709   37.8565215234
F   16.2464160635   14.8987220250   37.1843863543
F   14.7752518700   16.3487317738   37.9855497414
C   13.9199906511   14.3829876662   36.9981525465
H   12.9703686900   14.5151435041   37.5361312474
F   14.1577827610   13.0139547792   36.8794887221
C   13.7614460716   15.0005151589   35.5754964431
F   14.9661755641   14.9500076097   34.9353932738
F   13.4400715062   16.3216281285   35.7705418465
C   12.6827829473   14.3336672870   34.6997658132
H   11.7154524901   14.4151165303   35.2121764343
H   12.9259935840   13.2705313867   34.5871059259
C   12.5456659822   14.9686558402   33.2993028032
F   13.7441379347   14.8397366621   32.6358796203
F   12.3084751940   16.3137128879   33.4477406886
C   11.4289346947   14.3558341141   32.4310707976
H   10.4757097683   14.4124897668   32.9699780599
H   11.6664362849   13.2986825520   32.2632350909
C   11.2538535929   15.0292173242   31.0580132696
F   12.4347700983   14.9566416748   30.3616305789
F   10.9374946166   16.3482736555   31.2288398893
C   10.1591345283   14.3626587008   30.1720072457
F   8.95401821306   14.3644410526   30.8754654399
H   10.4416285885   13.3158083814   29.9857214024
C   9.93416741325   15.0281878069   28.7836353710
F   11.1441640320   14.9808090282   28.1342558101
F   9.60826765638   16.3586439883   28.9452999440
C   8.87890650148   14.3361260440   27.9638296258
H   8.09915924831   13.7984075665   28.4964598007
C   8.84469497080   14.3947641643   26.6283798511
F   9.74756284132   15.1395732154   25.9676700569
C   7.85098696162   13.7281990909   25.7192265555
H   7.29304456181   12.9768575317   26.2887071465
H   7.13286922073   14.4669050660   25.3381311186
C   8.49786100550   13.0402901064   24.5058267446
F   9.20972431298   13.9531192302   23.7881834666
F   9.38565083203   12.0803113817   24.9486735583
C   7.46614878763   12.3238485781   23.5842288143
H   7.10529768587   11.4307072178   24.1166573295
F   6.38050596440   13.1765828112   23.3765741722
C   8.00654062546   11.9016782016   22.1856597180
F   8.46075990389   13.0132484409   21.5368092930
F   9.07852645071   11.0731451923   22.4079236659
C   6.94758984967   11.1946189335   21.3201453858
H   6.59873210117   10.3021683839   21.8542025722
H   6.09562546093   11.8756551348   21.2090711261
C   7.43824500039   10.7645316333   19.9234733012
F   7.94034115680   11.8645674372   19.2694801765
F   8.47785458035   9.87706256145   20.0814873600
C   6.34260291660   10.1188075276   19.0445203542
H   5.94169550505   9.23353665780   19.5534924488
H   5.52587751081   10.8425025924   18.9264045515
C   6.82051458172   9.68746606952   17.6440176816
F   7.32927907668   10.7687837167   16.9687863141
F   7.82431383203   8.77087473729   17.7694658604
C   5.68964377563   9.09465101851   16.7412089994
F   5.06596487284   8.04875829307   17.4224782109
H   4.94327257015   9.88366203118   16.5653594253
C   6.17456895307   8.56977843161   15.3518899983
F   6.72491860402   9.64497929843   14.7001587890
F   7.15896773540   7.64257671200   15.5460013014
C   5.06165567195   7.95240714361   14.4821769094
H   4.65522383464   7.08260732808   15.0103350416
H   4.25450357846   8.68509504268   14.3564544229
C   5.53310254677   7.51148470594   13.0792635400
F   6.02058708155   8.61086691322   12.4122355154
F   6.57734085045   6.62808804353   13.2158031987
C   4.43486115542   6.85025620683   12.2173033534
H   4.06706182888   5.95754633604   12.7413452035
H   3.60043520444   7.55104306783   12.0960960316
C   4.91654939910   6.42730325642   10.8163331770
F   5.39173912185   7.51750613466   10.1451842684
F   5.94325564763   5.52546892933   10.9415898338
C   3.81851397567   5.73101202330   9.95303223798
H   3.47900012833   4.83405429560   10.4913452713
F   2.73220222542   6.59610897496   9.82192591720
C   4.28660739817   5.29751921879   8.53076102348
F   4.81301485327   6.38111269254   7.88724782811
F   5.29318807826   4.38126206358   8.71145736554
C   3.18227652634   4.66752912113   7.66628226529
H   2.79669807226   3.77818746426   8.18301131129
H   2.35992860381   5.38521137308   7.56284417612
C   3.65940625362   4.24023618616   6.26178598782
F   4.15185453798   5.33528678516   5.59224130616
F   4.69697358482   3.34837458142   6.39300945880
C   2.54896356638   3.60146137713   5.41773275959
H   2.14220986070   2.73927699729   5.95821282075
H   1.74136631493   4.33404401150   5.29592668499
C   2.95356379080   3.11669148006   4.01806743989
F   3.42363400082   4.15792982792   3.25272975495
F   3.94515263244   2.18132263837   4.10122364126
C   1.74149979775   2.52660349412   3.25649262519
F   1.18592845795   1.49395062183   4.01661079410
H  0.984449740516   3.32089354659   3.16110664718
C   1.99314404327   1.96034244285   1.84641143343
F   2.37995563732   2.95987498950  0.995125241302
F   2.95424456665  0.994577627242   1.84081215094
H   1.06128527389   1.51594507106   1.45958914041
