556
Lattice="15.491908 0.0  0.0  0.000000 8.155559  0.0  0.000000 0.000000 54.992862"
H   48.370389   -6.946323   21.813387
C   48.276131   -6.326391   20.969207
H   50.411001   -6.711547   20.568659
C   49.508873   -6.138899   20.257498
H   46.329386   -4.340712   16.988259
H   46.179976   -5.682044   21.205988
H   44.524602   -5.461689   20.292240
C   47.059525   -5.696489   20.586161
C   49.460007   -5.182727   19.158990
H   50.400472   -5.012016   18.509864
C   46.993132   -4.756746   19.454805
C   45.719354   -3.556785   17.625997
C   48.258428   -4.519247   18.790842
H   44.654015   -3.481093   17.295340
C   44.473839   -5.019853   19.297158
H   46.203123   -2.542967   17.636590
H   48.222864   -3.838857   17.923220
C   45.740253   -4.038506   19.135155
H   43.474172   -4.529015   19.134483
H   44.494044   -5.872160   18.611315
C   45.536975   -2.859498   20.075190
H   47.257728   -3.358954   21.450853
H   43.854315   -1.955875   19.049543
C   46.431871   -2.621341   21.210415
C   44.491019   -1.851898   19.924159
C   46.313737   -1.484867   22.039979
C   44.312121   -0.746180   20.775632
H   46.982195   -1.534098   22.919256
H   43.582830   0.036430   20.506999
C   45.178136   -0.539287   21.896692
O   45.130495   0.485166   22.755758
H   44.948717   3.078084   23.072516
C   43.935552   1.130137   22.938941
C   44.067240   2.525002   23.273856
H   42.711234   -0.591459   22.646325
C   42.727735   0.407172   23.016320
C   42.946896   3.220580   23.792878
H   42.957142   4.301735   23.998520
C   41.605458   1.095678   23.594543
C   41.700845   2.554491   24.015973
C   40.161268   0.596803   23.629422
O   39.764015   -0.369777   23.087710
C   40.341619   2.954295   24.572056
N   39.433395   1.715367   24.550967
O   40.018582   4.003244   25.067000
H   37.768709   -0.283386   23.909209
C   37.957225   1.700364   24.725783
C   37.174338   0.625170   24.161977
H   37.804814   3.685913   25.489535
C   37.229001   2.864327   25.151295
C   35.746788   0.604617   24.137854
H   35.146805   -0.266737   23.859718
C   35.838512   3.009259   24.909224
C   35.132155   1.867234   24.436705
O   32.766317   3.960349   24.311406
N   35.168532   4.352549   24.981144
H   34.078229   2.002629   24.283251
C   33.577631   4.583853   24.915641
O   36.774785   5.650580   26.212925
C   35.665427   5.550006   25.780558
C   33.257331   5.874266   25.592917
C   34.517280   6.558556   26.017023
H   30.990002   6.383642   25.347037
C   32.031004   6.682251   25.687657
C   34.557431   7.867495   26.594829
H   35.528146   8.291499   26.925536
C   32.106336   7.993148   26.231718
C   33.310026   8.564361   26.834752
H   31.181353   8.613473   26.294535
H   34.362322   7.877122   29.245698
O   33.248729   9.686992   27.529943
C   34.868029   8.838336   29.162576
C   34.331397   9.895963   28.356287
H   36.466741   8.181013   30.356456
H   40.372592   11.114062   29.629702
H   37.646058   12.438512   31.406644
C   36.124238   9.050058   29.811360
C   34.989694   11.186544   28.343816
H   34.550555   12.053665   27.785041
C   39.253471   11.088272   29.311405
C   36.934040   10.260617   29.713448
C   38.035117   11.410284   31.630623
H   39.227976   10.638956   28.287259
C   36.291723   11.355139   28.966753
H   37.265600   11.053450   32.322339
H   38.996090   12.202729   29.176045
H   38.988958   11.521697   32.212739
C   38.255730   10.435059   30.381247
H   36.775132   12.380697   29.041913
C   38.866439   9.084914   30.707049
H   39.136089   9.290511   32.956212
H   38.988629   8.300529   28.644971
C   39.167873   8.614670   32.087256
C   39.192819   8.064243   29.713374
C   39.579452   7.277495   32.413040
C   39.868895   6.886001   30.019361
H   39.656895   6.904117   33.417189
H   40.171280   6.136498   29.302597
C   40.094070   6.415495   31.381754
O   40.737670   5.221956   31.507255
H   42.085125   7.211026   32.814259
C   41.518210   5.084777   32.593177
C   42.077531   6.219664   33.248036
H   41.305347   2.930249   32.489964
C   41.641592   3.747374   33.123686
C   42.867643   6.019196   34.442093
H   43.397592   6.897209   34.902132
C   42.429692   3.479719   34.271684
C   43.020602   4.696333   34.988210
C   42.959322   2.275366   35.048359
O   42.720992   1.175798   34.753108
C   43.847766   4.284335   36.205862
N   43.905814   2.732673   36.221370
O   44.335711   5.046049   36.984075
C   44.566005   1.867703   37.255568
H   46.275946   3.234483   37.599889
H   43.183747   0.160593   37.117520
C   45.782770   2.243762   37.872104
C   44.104158   0.554641   37.623358
C   46.578636   1.503621   38.803493
C   44.866169   -0.252507   38.491797
H   44.565482   -1.246754   38.748788
O   47.909911   0.650398   41.568162
C   46.072620   0.209399   39.117652
N   47.802460   2.020202   39.506113
C   48.442724   1.371870   40.758796
O   48.822548   3.360205   37.688835
C   48.930442   2.805778   38.721304
H   46.606939   -0.505278   39.865387
C   49.959825   1.626033   40.662546
C   50.230121   2.522502   39.470314
H   50.770173   0.674058   42.425484
C   51.020655   1.301276   41.568626
C   51.575567   2.964844   39.233885
H   51.767722   3.507372   38.336786
C   52.352596   1.625572   41.220118
C   52.616157   2.431863   40.080798
O   53.277485   0.622306   41.691707
H   53.664656   2.616680   39.824762
H   54.343251   3.168251   42.347638
C   54.509140   2.312355   42.951395
C   54.135461   0.942488   42.612056
H   58.588351   2.974424   46.475521
H   55.760719   3.588083   44.229398
H   56.677165   2.911625   47.891828
C   55.384158   2.581234   44.052781
C   54.617291   -0.162067   43.452337
H   54.364861   -1.209337   43.214435
C   55.858331   1.441817   44.864437
C   57.935107   2.679411   45.594582
C   55.472251   0.093680   44.514883
H   58.519999   2.125651   44.741888
C   55.981870   2.510165   47.156763
H   57.518694   3.575635   45.043580
H   55.771090   -0.723718   45.162828
C   56.799932   1.722727   46.068851
H   55.472914   3.366690   46.622729
H   55.310746   1.853686   47.687455
C   57.354267   0.472600   46.649137
H   56.185201   0.357219   48.498564
H   58.719258   0.022454   44.949825
C   56.956281   -0.153152   47.923188
C   58.327596   -0.354037   45.925656
C   57.416430   -1.391281   48.427818
C   58.816577   -1.540981   46.466113
H   57.002147   -1.705397   49.362061
H   59.527992   -2.083976   45.845240
C   58.445693   -2.163867   47.748182
O   58.884073   -3.341921   48.182749
H   59.366020   -1.540018   50.017176
C   58.826084   -3.572389   49.533694
C   59.141688   -2.526114   50.448339
H   58.485011   -5.736426   49.182551
C   58.602156   -4.957642   49.885417
C   59.239713   -2.771581   51.862262
H   59.509246   -1.920578   52.609242
C   58.595090   -5.177664   51.277346
C   58.928740   -4.118112   52.339270
C   58.171709   -6.464983   52.005397
O   57.675320   -7.410984   51.446992
C   58.629522   -4.673302   53.682700
N   58.242020   -6.249686   53.557688
O   58.671356   -3.984640   54.654140
H   57.431592   -8.941170   53.452128
C   57.793634   -7.140217   54.627945
C   57.462397   -8.513154   54.454068
H   58.029083   -5.613865   56.175194
C   57.699944   -6.627391   55.990008
C   57.152954   -9.326277   55.590861
H   57.003848   -10.422686   55.431029
C   57.211334   -7.357335   57.104946
C   57.018654   -8.789663   56.913148
O   56.987132   -4.177909   57.820772
N   56.898630   -6.708367   58.368937
H   56.625812   -9.454664   57.666731
C   56.881900   -5.085611   58.606964
O   55.856208   -8.502704   59.798961
C   56.134030   -7.344773   59.568904
C   56.371871   -4.971650   60.014090
C   55.923350   -6.329449   60.620497
H   56.469246   -2.799275   60.489216
C   56.203549   -3.793651   60.818190
C   55.231554   -6.404226   61.886467
H   54.902561   -7.376087   62.254138
C   55.599237   -3.959072   62.113718
C   55.088661   -5.200352   62.598174
H   55.359567   -3.068774   62.699503
H   52.974154   -3.760642   62.074344
O   54.477396   -5.353961   63.809388
C   52.699382   -3.788531   63.115809
C   53.403648   -4.627681   64.057901
H   51.215046   -2.305961   62.784785
H   50.086843   -0.097507   66.451791
H   48.914868   -2.208499   63.448042
C   51.644236   -2.935400   63.493616
C   52.881034   -4.736620   65.414684
H   53.328972   -5.460503   66.135819
C   50.743148   -0.913915   66.166671
C   51.159038   -2.979383   64.882285
C   49.150710   -1.493022   64.296837
H   51.139646   -1.359462   67.107203
C   51.774116   -3.950214   65.775615
H   48.129480   -1.157714   64.691381
H   51.542761   -0.504052   65.643897
H   49.611133   -0.600667   63.831000
C   50.062425   -2.118015   65.388944
H   51.375535   -4.117496   66.785477
C   49.074738   -2.758397   66.349582
H   48.496408   -0.990374   67.494744
H   49.417973   -4.700541   65.358857
C   48.339142   -2.028678   67.380510
C   48.916267   -4.193267   66.208305
C   47.416281   -2.722063   68.193651
C   47.929605   -4.865433   66.919618
H   46.998335   -2.130689   69.009702
H   47.793956   -5.928426   66.788129
C   47.187603   -4.136873   67.984592
O   46.359202   -4.768407   68.843911
H   45.722836   -5.895926   66.326776
C   45.626353   -5.865185   68.585155
C   45.509872   -6.442583   67.228086
H   45.116976   -6.294608   70.671107
C   45.089965   -6.661495   69.622466
C   44.992419   -7.737120   66.940719
H   44.801782   -8.002782   65.889482
C   44.529861   -7.940721   69.365383
C   44.639780   -8.650852   68.018910
C   44.045644   -8.968021   70.410208
O   44.043297   -8.815945   71.596026
C   44.138159   -10.046443   68.090083
N   43.561826   -10.175026   69.552148
O   44.142454   -10.879534   67.237759
C   42.849286   -11.429241   70.024991
H   42.132210   -10.593572   71.849706
H   43.322399   -12.655626   68.214372
C   42.212897   -11.586346   71.291531
C   42.850132   -12.636467   69.237118
C   41.499060   -12.756977   71.788745
C   42.263815   -13.828664   69.709910
H   42.290858   -14.745748   69.045868
O   41.443477   -10.721615   74.183603
C   41.541697   -13.874694   70.941550
N   40.790866   -12.793799   73.117867
C   40.660938   -11.604913   74.084684
O   39.307876   -14.835725   73.053244
C   39.694671   -13.839259   73.566917
H   40.984789   -14.778155   71.256679
C   39.518494   -11.821409   75.032006
C   38.985797   -13.202012   74.781313
H   39.281079   -10.040391   76.388830
C   38.923258   -11.063883   76.166541
C   37.906933   -13.773442   75.556919
H   37.562660   -14.767852   75.445657
C   37.798021   -11.551570   76.815341
C   37.351440   -12.912224   76.577690
O   37.015350   -10.668995   77.641863
H   36.335224   -11.181562   78.235919
H   36.511670   -13.333042   77.170250
H   32.788572   17.914359   70.952949
C   32.878555   17.235248   71.765136
H   30.884676   17.639192   72.630625
C   31.772286   17.039438   72.650528
H   35.626108   15.237992   75.378098
H   34.970574   16.735739   71.307957
H   36.729819   16.318294   71.861227
C   34.113502   16.549714   71.916659
C   31.966321   16.160692   73.793058
H   31.119149   16.010085   74.504118
C   34.245857   15.512858   72.953783
C   36.003866   14.489670   74.628652
C   33.114658   15.375190   73.896705
H   37.096552   14.432664   74.824018
C   36.650233   16.029276   72.938809
H   35.543219   13.503340   74.919063
H   33.195241   14.715804   74.726836
C   35.624493   14.882706   73.142997
H   37.693941   15.754323   73.273054
H   36.357850   16.964014   73.400606
C   35.795389   13.742487   72.190919
H   33.693401   13.969140   71.344808
H   37.873898   13.273812   72.812522
C   34.702459   13.443176   71.309409
C   37.071170   12.957920   72.137471
C   34.910676   12.413038   70.351167
C   37.197774   11.949046   71.173734
H   34.076771   12.079310   69.655915
H   38.142105   11.391918   71.130970
C   36.133322   11.633774   70.232757
O   36.278264   10.708432   69.259164
H   38.264465   12.455187   68.979140
C   37.487241   10.396836   68.708709
C   38.457527   11.479690   68.651790
H   36.893146   8.395105   68.261726
C   37.624849   9.150444   68.128478
C   39.703302   11.275460   67.957473
H   40.486785   12.000679   67.865214
C   38.914863   8.919475   67.479555
C   39.957642   9.986134   67.376004
C   39.415664   7.645753   66.821177
O   38.896866   6.566228   66.798091
C   41.232654   9.431148   66.688167
N   40.896627   7.929344   66.328175
O   42.170510   10.108103   66.424302
H   40.548402   5.298651   65.389058
C   41.687457   7.118211   65.389762
C   41.407518   5.772352   64.958493
H   42.996953   8.759120   64.859445
C   42.824211   7.695926   64.696132
C   42.281245   5.075667   64.088217
H   41.968296   4.066633   63.809415
C   43.708726   7.115423   63.732425
C   43.425282   5.733536   63.493813
O   44.409846   10.149228   63.554824
N   44.984036   7.776774   63.282929
H   44.062437   5.246335   62.807315
C   45.216877   9.283680   63.239925
O   46.288683   5.949617   62.164272
C   46.220763   7.098631   62.525208
C   46.613697   9.559512   62.776019
C   47.185280   8.248598   62.216936
H   46.891761   11.718017   62.939926
C   47.351683   10.791030   62.660936
C   48.434369   8.334516   61.575590
H   48.912552   7.395653   61.206962
C   48.601154   10.782528   62.025069
C   49.190254   9.554470   61.512294
H   49.151903   11.652111   61.840981
H   48.898983   10.818697   59.075152
O   50.439966   9.416432   60.968635
C   49.950761   10.885279   59.001397
C   50.790824   10.284033   60.030409
H   50.062679   11.872709   57.161940
H   54.912292   12.390434   57.452183
H   51.464333   13.854039   56.244238
C   50.622114   11.503570   57.906944
C   52.251056   10.503793   60.045342
H   52.790941   10.215290   60.970102
C   54.044382   12.969626   57.069428
C   52.103610   11.539219   57.799637
C   51.883305   12.970781   55.743747
H   53.754379   13.666246   57.872704
C   52.905751   11.054615   58.931777
H   51.253406   12.328069   55.066334
H   54.431083   13.638898   56.181379
H   52.524633   13.541340   54.970540
C   52.810846   12.042809   56.603224
H   53.993693   11.136255   58.947382
C   53.423792   10.917357   55.774970
H   52.740182   9.402292   57.269850
H   54.466496   12.018463   54.154192
C   53.286455   9.575698   56.288425
C   54.220692   11.053478   54.523123
C   53.727813   8.389626   55.605789
C   54.573060   9.893769   53.795977
H   53.559607   7.372916   56.037357
H   55.026671   9.984893   52.840286
C   54.276166   8.546699   54.302808
O   54.487942   7.489303   53.478866
H   53.163974   9.456382   52.125671
C   54.090684   7.498703   52.204181
C   53.509216   8.638260   51.561599
H   54.806356   5.426040   51.936996
C   54.326631   6.275797   51.423276
C   53.228944   8.600260   50.168878
H   52.840659   9.447948   49.657034
C   53.908054   6.131488   50.057431
C   53.443340   7.384127   49.386931
C   54.072234   4.975068   49.074282
O   54.291992   3.849147   49.394816
C   53.237475   7.015881   47.928579
N   53.670055   5.524264   47.693875
O   53.008819   7.828893   47.103932
C   53.200054   4.725665   46.482198
H   53.169885   6.241015   44.894970
H   52.888541   2.954184   47.623737
C   52.905265   5.218981   45.145170
C   52.732572   3.418989   46.663359
C   52.263165   4.646409   44.007091
C   52.051394   2.727167   45.649987
H   51.597160   1.707166   45.834766
O   49.499201   5.338481   42.918443
C   51.816359   3.330649   44.341114
N   51.844746   5.362910   42.693372
C   50.446647   5.469811   42.188496
O   53.909729   5.358990   41.304392
C   52.746921   5.586653   41.417285
H   51.238046   2.857811   43.553901
C   50.427174   5.911275   40.724162
C   51.869635   6.033699   40.256077
H   48.318787   5.874724   40.218254
C   49.333917   6.121456   39.830119
C   51.981829   6.487243   38.886207
H   52.975590   6.508378   38.524636
C   49.521486   6.686699   38.487744
C   50.890011   6.813406   38.041141
O   48.433801   6.738587   37.691322
H   51.054471   7.224193   37.061351
H   46.376400   6.732497   36.114290
C   47.173277   7.505053   35.846209
C   48.341904   7.646857   36.694886
H   45.167960   10.188763   33.020736
H   46.084425   8.116141   34.148689
H   46.896077   10.165471   31.000753
C   46.947915   8.336481   34.723835
C   49.210475   8.738001   36.337120
H   50.075507   9.021021   36.914106
C   47.858036   9.412773   34.339737
C   45.965339   10.874315   33.319909
C   48.982958   9.571307   35.214563
H   45.831200   11.835503   32.719156
C   47.490077   9.579520   31.721221
H   45.852652   11.106982   34.394947
H   49.710734   10.331494   34.941701
C   47.456221   10.288521   33.156980
H   47.090866   8.548710   31.797187
H   48.479095   9.458382   31.357371
C   48.331176   11.490025   33.088016
H   48.545888   11.462886   30.919630
H   48.276481   12.005054   35.179019
C   48.835744   11.982799   31.822802
C   48.731545   12.248770   34.274278
C   49.809433   13.028887   31.730436
C   49.698215   13.282756   34.207296
H   50.173902   13.385146   30.738863
H   49.902352   13.771482   35.166382
C   50.211850   13.721290   32.914993
O   50.945558   14.854920   32.806101
H   52.491413   13.058698   34.091759
C   51.756311   15.114708   33.886755
C   52.590902   14.075737   34.453736
H   51.202703   17.169144   33.908941
C   51.934139   16.460932   34.328871
C   53.556912   14.434755   35.421460
H   54.264011   13.731295   35.863562
C   52.949436   16.828984   35.304720
C   53.790930   15.775270   35.866329
C   53.215295   18.192446   36.025347
O   52.541104   19.155294   36.008974
C   54.913762   16.417358   36.729331
N   54.629626   17.940516   36.822212
O   55.898544   15.827253   37.051131
H   54.353674   20.635313   37.342300
C   55.224326   18.732613   37.869745
C   55.091784   20.185389   37.987094
H   56.282413   17.165769   38.925708
C   56.144982   18.219242   38.856987
C   55.950181   21.060454   38.722879
H   55.966983   22.134839   38.681642
C   56.879744   19.002470   39.777087
C   56.854863   20.418577   39.652038
O   57.359075   15.969439   40.356806
N   57.618438   18.302172   40.929937
H   57.499016   21.060212   40.317140
C   57.924328   16.784763   40.988899
O   58.938497   20.095567   42.089718
C   58.628030   18.948739   41.896884
C   59.080676   16.576560   42.002673
C   59.447258   17.885779   42.643266
H   59.442182   14.435810   41.955025
C   59.698170   15.360378   42.437819
C   60.492692   17.920304   43.622601
H   60.843133   18.857773   44.048161
C   60.710900   15.488501   43.412443
C   61.007837   16.693202   44.179169
H   61.360001   14.713156   43.688784
H   61.114641   17.851945   47.697471
O   61.728593   16.643263   45.263537
C   61.869455   18.369362   47.062806
C   62.129758   17.880187   45.734710
H   62.332290   19.863153   48.534729
H   62.496248   22.756758   46.680323
H   64.629740   22.503750   45.496907
C   62.527783   19.547275   47.517396
C   63.015449   18.620907   44.887515
H   63.300425   18.228457   43.928762
C   63.086773   22.515846   47.595318
C   63.470354   20.258964   46.680005
C   65.165999   21.997415   46.275493
H   63.404751   23.540813   47.868933
C   63.721264   19.785004   45.352994
H   65.882143   21.323271   45.784657
H   62.404267   22.239805   48.480653
H   65.823130   22.661658   46.751441
C   64.174127   21.356266   47.360525
H   64.454095   20.281871   44.694852
C   64.961949   20.924726   48.602262
H   65.534756   22.895527   49.499889
H   64.851868   18.797057   47.981124
C   65.521922   21.813555   49.624195
C   65.208010   19.496491   48.724848
C   65.988300   21.225234   50.803853
C   65.688600   18.898898   49.924208
H   66.339385   21.852988   51.678632
H   65.870612   17.818993   49.955844
C   66.035336   19.773306   50.991395
O   66.206337   19.324215   52.217855
H   67.148208   18.214391   54.388313
C   65.903632   18.053516   52.593392
C   66.398663   17.624507   53.871874
H   64.308225   17.603677   51.081237
C   64.837596   17.258697   51.988083
C   65.890487   16.467001   54.525883
H   66.290646   16.275082   55.534262
C   64.347909   16.135010   52.679421
C   64.823231   15.669046   54.005548
C   63.242733   15.149092   52.248015
O   62.597201   15.383877   51.267840
C   64.126011   14.366684   54.465888
N   63.038852   14.097804   53.311404
O   64.387976   13.700484   55.438055
C   62.413370   12.728000   53.098270
H   62.214058   12.363534   55.171644
H   62.135055   12.849647   50.904167
C   62.199557   11.870737   54.230924
C   62.087722   12.240760   51.816943
C   61.699892   10.532192   54.182493
C   61.826109   10.847430   51.651835
H   61.681195   10.497248   50.635506
O   60.776499   7.490368   54.432176
C   61.649771   10.050095   52.823443
N   61.175742   9.765813   55.336079
C   60.746335   8.245382   55.333529
O   61.187709   11.413326   57.202222
C   61.065845   10.291257   56.807280
H   61.284239   9.029429   52.593551
C   60.316964   7.990262   56.800197
C   60.527009   9.155726   57.685709
H   59.771089   5.878337   56.657831
C   59.829473   6.731767   57.337872
C   60.148560   9.050704   59.086487
H   60.138307   9.863375   59.765830
C   59.586848   6.611553   58.704962
C   59.666701   7.781902   59.557593
O   59.153179   5.330100   59.319067
H   59.310112   7.703661   60.605799
H   59.143027   4.583069   58.653311
