138
Lattice="   32.0000000    0.00000000    0.00000000    0.00000000    18.0000000    0.00000000    0.00000000    0.00000000    58.0000000"
H   26.2223887048   12.4939979968   53.5258419464
C   25.4475707009   12.0807746667   52.8727660315
H   24.4728800954   12.1855983169   53.3603750440
H   25.6534226759   11.0210256685   52.6934924382
C   25.4635341071   12.8462560540   51.5680126240
F   26.7327559168   12.7695085176   51.0263618944
F   25.2465810119   14.1839145548   51.8495527625
C   24.4240800479   12.3386221723   50.5586117891
H   23.4385260779   12.4255148513   51.0343918481
H   24.6232930242   11.2724095748   50.3896984218
C   24.3570667251   13.0184400790   49.1861537971
F   25.5625824764   12.8626172374   48.5400008716
F   24.1600776913   14.3688618427   49.3493820386
C   23.2270835178   12.4345722344   48.3120906461
H   22.2807108317   12.5381777008   48.8583312935
H   23.4166420398   11.3626307427   48.1802766986
C   23.0589138588   13.0811089519   46.9292948711
F   24.2547570536   13.0246625736   46.2543775675
F   22.7525137131   14.4121614199   47.0979315808
C   21.9604262923   12.4273303833   46.0669007532
H   20.9979342887   12.5474786099   46.5778916465
H   22.1721605733   11.3550751219   45.9741004136
C   21.8425790890   13.0319518552   44.6602998216
F   23.0275944056   12.8705476344   43.9856337918
F   21.5986998671   14.3711922956   44.7667315670
C   20.7465568982   12.3730333583   43.7709307006
F   19.5290657396   12.3939248316   44.4541043971
H   21.0293662530   11.3220107510   43.6124637435
C   20.5600427522   13.0484136278   42.3752440341
F   21.7666575536   12.9519438135   41.7300441180
F   20.2835600560   14.3751285403   42.5491219442
C   19.4493525484   12.4135608795   41.5202227930
H   18.5040196579   12.5190340053   42.0654149045
H   19.6560352786   11.3427422895   41.3991091405
C   19.2947361388   13.0520780936   40.1239184152
F   20.4930810161   12.9695421382   39.4575362584
F   19.0179960083   14.3907337731   40.2785438231
C   18.1913875773   12.4073493255   39.2569840637
H   17.2296173637   12.5094800355   39.7765977599
H   18.4068603769   11.3400244240   39.1380876938
C   18.0637935519   13.0171960619   37.8508761518
F   19.2443544907   12.8610633203   37.1846677187
F   17.8089858445   14.3609321112   37.9566893203
C   16.9101392781   12.3998313632   36.9963134583
H   15.9635397418   12.5527796754   37.5350859613
F   17.1251846626   11.0272721134   36.8833522262
C   16.7653689955   13.0076778695   35.5679597711
F   17.9664112773   12.9238323844   34.9256326322
F   16.4719081079   14.3368211033   35.7503701960
C   15.6754229599   12.3449224224   34.7030765562
H   14.7172952333   12.4172469687   35.2328598099
H   15.9285271535   11.2843341125   34.5833686659
C   15.5094879953   12.9894308831   33.3104595018
F   16.7067461849   12.9115395911   32.6400109422
F   15.2239087322   14.3243632612   33.4820720185
C   14.4107081458   12.3528475508   32.4321483576
H   13.4502804470   12.3964119126   32.9586043912
H   14.6661691714   11.2988621993   32.2639913616
C   14.2409063451   13.0261316724   31.0577448340
F   15.4171403443   12.9266116550   30.3595176013
F   13.9523979426   14.3513549985   31.2255826452
C   13.1309496418   12.3909411569   30.1692178752
F   11.9200104012   12.4547247999   30.8600870387
H   13.3738829535   11.3314899977   30.0004960053
C   12.9406625850   13.0552971867   28.7734620551
F   14.1453836429   12.9818010684   28.1271702710
F   12.6493933304   14.3974545888   28.9358159289
C   11.8467155031   12.4248938435   27.9568398776
H   11.0003463661   12.0129867772   28.4975990326
C   11.8164880651   12.4647746441   26.6194681426
F   12.8238906715   13.0356121563   25.9396939349
C   10.6927555762   12.0178448065   25.7314585462
H   9.98564006161   11.4204302417   26.3169072768
H   10.1596099760   12.9068052514   25.3678917047
C   11.1414889649   11.1977086168   24.5117206437
F   12.0626530227   11.8977989117   23.7941347091
F   11.7523418873   10.0429972418   24.9546093116
C   9.96229437555   10.7704075809   23.5866791084
H   9.38996435152   9.99182113554   24.1128074267
F   9.12468905843   11.8701117891   23.3830874897
C   10.3820589673   10.2214502760   22.1898599500
F   11.1275602521   11.1647052224   21.5451644041
F   11.1866339381   9.13482772781   22.4267471689
C   9.18277540438   9.82334482902   21.3085123911
H   8.60041657917   9.05830998804   21.8378181440
H   8.54754675580   10.7079437260   21.1789959873
C   9.55855180062   9.26798262026   19.9184567242
F   10.3396900459   10.1860561293   19.2593074415
F   10.3237147615   8.14049771078   20.0946338024
C   8.33385074496   8.93265717139   19.0380846121
H   7.72244307392   8.18059502243   19.5513798790
H   7.73540204590   9.84639363441   18.9301466508
C   8.67290084886   8.39887424318   17.6320854899
F   9.42452660710   9.32335951560   16.9499806427
F   9.41546866828   7.25921843636   17.7463422626
C   7.41817273540   8.11416551553   16.7428189688
F   6.56685875999   7.24178541302   17.4219695520
H   6.88444938464   9.06485617240   16.5946088016
C   7.73917815014   7.51028586988   15.3368352816
F   8.51094955846   8.43855063651   14.6846409324
F   8.48463209357   6.37881054498   15.4952745800
C   6.49593046062   7.17897767041   14.4870845006
H   5.89546939484   6.44248163335   15.0322675218
H   5.89356534430   8.08784741656   14.3635729216
C   6.83249764634   6.62121135520   13.0850815532
F   7.58784104403   7.55227891896   12.4122008473
F   7.61113912727   5.49787676043   13.2267627694
C   5.60478464731   6.26622283967   12.2179716818
H   5.01212094467   5.49928013230   12.7345697975
H   4.98365840695   7.15954236713   12.0853801377
C   5.96942251908   5.73377133351   10.8191177399
F   6.70096097181   6.67023127259   10.1468983783
F   6.73859110378   4.60671023732   10.9469823309
C   4.72706891554   5.33532765105   9.95914260716
H   4.17994657301   4.54819595475   10.4989912088
F   3.88697503721   6.44375888732   9.83704698837
C   5.06588314124   4.80712015223   8.53165506565
F   5.83408340609   5.73459219063   7.88710343306
F   5.81957054253   3.67481276554   8.70651894700
C   3.83991415792   4.47181719408   7.66762165541
H   3.23549155220   3.72074469576   8.19257501761
H   3.23371716643   5.37701406889   7.54878301911
C   4.18768037572   3.91599695428   6.26998961538
F   4.97281818605   4.82260701683   5.59851040292
F   4.93082743240   2.76831875058   6.41417299010
C   2.94180943945   3.61081355583   5.42501141740
H   2.31837268897   2.88321804777   5.95746416909
H   2.36386691679   4.53667543979   5.31513785729
C   3.19939012588   3.05843029827   4.01636045774
F   3.91389877052   3.96036271180   3.26301481330
F   3.92309960533   1.90316701624   4.07635366603
C   1.87785921328   2.80584423199   3.24934329357
F   1.06399654730   1.96187153992   4.00694029991
H   1.35869598102   3.76944855911   3.13092255119
C   2.00871769778   2.18313469842   1.84743643318
F   2.68787697879   3.04048091735   1.02210459434
F   2.67179146123  0.992117121348   1.87938721561
H   1.00838525520   2.00554726853   1.41929198578
