138
Lattice="   32.0000000    0.00000000    0.00000000    0.00000000    18.0000000    0.00000000    0.00000000    0.00000000    58.0000000"
H   28.8217240853   2.47480161945   53.5350792440
C   28.0382180197   2.07939425039   52.8818565194
H   27.0687009426   2.20458589919   53.3740599665
H   28.2261333545   1.01617474680   52.7071040821
C   28.0675520611   2.84423611310   51.5764457964
F   29.3387887831   2.74315483769   51.0423317112
F   27.8617901632   4.18387271766   51.8554486572
C   27.0268353137   2.35243153609   50.5598290839
H   26.0419243910   2.45939673448   51.0311054525
H   27.2103299572   1.28387197032   50.3895397887
C   26.9704004364   3.04096838414   49.1906187637
F   28.1835133026   2.89765567721   48.5584652109
F   26.7565793565   4.38707539786   49.3618670953
C   25.8554771335   2.45870344800   48.2979045780
H   24.9042761106   2.56922235266   48.8330571247
H   26.0479972618   1.38655701958   48.1720021399
C   25.7069259970   3.09252070761   46.9049085153
F   26.8986066937   2.97811532796   46.2286636338
F   25.4483040895   4.43461680200   47.0480995574
C   24.5887280116   2.44966938566   46.0557493824
H   23.6350641585   2.56803884639   46.5841662093
H   24.8049514733   1.37949184693   45.9440010691
C   24.4432342948   3.05978332056   44.6547651795
F   25.6228148077   2.91806322457   43.9663805171
F   24.1740197894   4.39220005377   44.7752447708
C   23.3448849041   2.38627233166   43.7747594120
F   22.1263746658   2.41951743141   44.4538891248
H   23.6239401409   1.33153543673   43.6311605859
C   23.1526056108   3.03931603804   42.3732933412
F   24.3558730882   2.91092634262   41.7258918096
F   22.8883853108   4.36976401051   42.5253664764
C   22.0379068137   2.39935464587   41.5302520762
H   21.0901603891   2.49993464145   42.0725011474
H   22.2623663202   1.33217617153   41.4162169645
C   21.8837396675   3.02671386061   40.1303985441
F   23.0791001124   2.92043896324   39.4611953094
F   21.6109015716   4.36683182260   40.2734822416
C   20.7797525265   2.38381584955   39.2694892136
H   19.8243299651   2.48609462435   39.7995363889
H   21.0018434265   1.31882930725   39.1333125751
C   20.6400525643   3.02461325943   37.8794964060
F   21.8230891981   2.91378669715   37.2067888066
F   20.3464062103   4.35757113241   38.0217095058
C   19.5001704300   2.41843347083   37.0093811550
H   18.5462554532   2.58201611574   37.5301246345
F   19.6915227853   1.04281300172   36.9006321816
C   19.3892907049   3.02263952524   35.5802453636
F   20.5944545295   2.91239442387   34.9474071554
F   19.1122257374   4.35568345286   35.7506191439
C   18.3007873852   2.36976419480   34.7192154881
H   17.3423450988   2.46631213305   35.2444334433
H   18.5425539051   1.30576118204   34.6126289843
C   18.1576948552   2.99574129156   33.3226933855
F   19.3563887657   2.88473331533   32.6582656900
F   17.9006200735   4.33801596590   33.4601429123
C   17.0455909939   2.34392398928   32.4821553035
H   16.1006245050   2.38659669065   33.0364801631
H   17.3071456927   1.28951585958   32.3322668270
C   16.8324715050   3.00468733067   31.1168862349
F   18.0087770613   2.98911662914   30.4101348008
F   16.4684805772   4.30890712274   31.2995413214
C   15.7615873118   2.29094953410   30.2332836593
F   14.5466034762   2.29028737246   30.9153947395
H   16.0677908228   1.24771084350   30.0787665987
C   15.6026886006   2.94154084500   28.8315578910
F   16.7737040716   2.71454384571   28.1657661492
F   15.5010954202   4.32090547820   29.0002859428
C   14.4162265318   2.64126068509   27.9579914099
H   13.4612809550   2.94253715959   28.3824308618
C   14.4933337947   2.57373400979   26.6190752987
F   15.6110248209   2.15835460052   25.9936902733
C   13.5473484138   3.28656090193   25.7040534111
H   12.7139349732   3.69605406275   26.2839965845
H   14.1335714038   4.14825673531   25.3529256508
C   12.9777505767   2.61704560276   24.4619847073
F   13.9385799098   1.90727940042   23.8075017826
F   11.9897955455   1.73296746676   24.8379318337
C   12.3276123393   3.68165493044   23.5268412759
H   11.4434171362   4.06880176276   24.0543505362
F   13.2263218265   4.73615951119   23.3545227861
C   11.8966600311   3.18206670486   22.1271606312
F   13.0009621641   2.71896889205   21.4693319292
F   11.0481560846   2.12219280523   22.3417255531
C   11.2022457034   4.26257980219   21.2817220169
H   10.3240606952   4.63032300305   21.8301525523
H   11.9035969852   5.09781453130   21.1634135419
C   10.7409199280   3.77033375903   19.8972314390
F   11.8108772648   3.21938116786   19.2330072345
F   9.82013965394   2.76172135465   20.0851521508
C   10.1228443972   4.87366061242   19.0149254808
H   9.24215119223   5.28394654472   19.5233649911
H   10.8563068398   5.68143175092   18.8958175485
C   9.70333019294   4.39766756153   17.6133985161
F   10.8016443607   3.93677622392   16.9294361441
F   8.81961221069   3.36392574252   17.7322790159
C   9.07926007057   5.51468712757   16.7239679153
F   8.00865416541   6.09370494985   17.4046253358
H   9.84658200307   6.28858935502   16.5695502954
C   8.57640380697   5.03298581970   15.3267165893
F   9.66701572499   4.51396334853   14.6751319665
F   7.67195210602   4.02324558573   15.4955319531
C   7.94244731932   6.15064663328   14.4785950863
H   7.08293019002   6.55960162583   15.0241811207
H   8.67963735265   6.95335207732   14.3576546873
C   7.48000155699   5.68862674091   13.0813591453
F   8.55388884856   5.15578184360   12.4092145436
F   6.56194654699   4.67447617595   13.2326600808
C   6.85457738140   6.80639797002   12.2195804648
H   5.96602641487   7.18586448486   12.7413657678
H   7.57491510780   7.62530534005   12.1048547669
C   6.44033483113   6.33271529771   10.8163379157
F   7.54503956841   5.89374177942   10.1433685301
F   5.56549227835   5.28272716592   10.9367985449
C   5.72435021012   7.41431370240   9.95159383908
H   4.81314157050   7.73477210225   10.4772097729
F   6.56173660758   8.52280574444   9.83378455156
C   5.31702021364   6.93605890109   8.52418761494
F   6.41170560875   6.43306271961   7.88266050435
F   4.42358480581   5.90942809479   8.70037570804
C   4.67600419651   8.03321147573   7.66473557675
H   3.79711470440   8.41402995423   8.19929376406
H   5.39952399101   8.84950200982   7.55556846504
C   4.22451506844   7.56331971358   6.26736283260
F   5.30483175740   7.05086203028   5.58975968288
F   3.31558277553   6.54137297364   6.41085069458
C   3.59108847140   8.68078891578   5.42802375404
H   2.71973424394   9.07595259502   5.96422811045
H   4.32380236817   9.49111828360   5.32627071312
C   3.13326317251   8.28721932752   4.01379915035
F   4.20029229635   7.87068342005   3.25276649102
F   2.23321121892   7.26042451253   4.06198996739
C   2.51421497260   9.49123269299   3.26584211220
F   1.47278627638   10.0114517504   4.03529132784
H   3.29299984856   10.2627483468   3.17007126333
C   1.93881090481   9.25046226607   1.85787488740
F   2.92394301417   8.85824498731  0.993530814777
F  0.963589597225   8.29978444059   1.85939143374
H   1.49707466425   10.1864330321   1.47967595408
