216
Lattice="   8.92240948    0.00000000    0.00000000    0.00000000    4.66215373    0.00000000    0.00000000    0.00000000    46.2561412"
C  0.308703864592   2.65923331059  0.493193228940
C   4.68223962536  0.524593368831   45.8443719648
C  0.319038086355   1.80080068961   1.75554083401
C   4.72673699782   3.58540523029   1.72498372149
Cl   1.68254081278   3.79896659721  0.527048264251
F   8.09544609781   3.47003054892  0.493504702031
Cl   6.23961876014   1.26449805762 0.0963397984796
F   3.58678228581   1.16816145428  0.160931479461
H   8.47324601834   1.02450648900   1.67500671500
H   1.27725176646   1.27363155806   1.80985391382
H   3.87172157670   2.92492995411   1.90977228756
H   5.60289936020   2.98538327083   1.98604068632
C 0.0657150696501   2.57795226291   3.04911993323
C   4.63905340033   4.62059401956   2.83502091769
C  0.202940364787   1.72505330433   4.33494247812
C   4.60718613548   3.90943752752   4.22372529146
F  0.935141359500   3.63306079830   3.15889362257
F   7.71254626444   3.09233822876   2.99749317230
F   5.71290750484  0.820218588662   2.86599157578
F   3.50677085923  0.744658323275   2.70397808847
F   8.13514714851  0.768678116147   4.28381205547
H   1.19024990456   1.24404704175   4.34595889960
F   3.52581612070   3.05087814697   4.21272613798
H   5.53358836634   3.32723535639   4.32109155658
C 0.0174007631686   2.52950131700   5.64760732609
C   4.45240296055  0.149667292304   5.48496580163
C  0.211427714792   1.68619549603   6.93447396326
C   4.65418995240   4.02950770412   6.81711274130
F  0.926745281695   3.54824109358   5.67089769530
F   7.67394206670   3.04970292535   5.64730423065
F   5.37477383989   1.15522780409   5.43580262091
F   3.19875150367  0.694609055411   5.47235491639
F   8.14640906562  0.728069145876   6.94073781524
H   1.20061928724   1.20815421167   6.91213425936
F   3.70128046164   3.03567940284   6.84349247708
H   5.66049265983   3.58807157713   6.81129743120
C 0.0693435364637   2.51170348019   8.24120469003
C   4.48943117098  0.209389563670   8.11486491306
C  0.267481551662   1.68233311392   9.53464785850
C   4.71041544559   4.06302990572   9.42565163965
F  0.987798032051   3.52067302598   8.23712325408
F   7.73628121820   3.05088308837   8.26159000598
F   5.39923000816   1.22747116638   8.08681766362
F   3.22100221694  0.723704795847   8.13306772047
F   8.21430530337  0.714539172826   9.54656788775
H   1.26228185615   1.21537885795   9.52556417149
F   3.75494207350   3.07406899060   9.45065988251
H   5.71735665991   3.62121002580   9.41176701048
C  0.102093515467   2.52840527136   10.8253436434
C   4.54929515401  0.237716907463   10.7296180447
C  0.293576399073   1.72250395838   12.1316484790
C   4.74947211061   4.07870537825   12.0339049774
F   1.01779012345   3.54056931034   10.8047068164
F   7.76713663335   3.06087218962   10.8282069237
F   5.46119475934   1.25262273228   10.7145840951
F   3.29133287791  0.769536338491   10.7534434937
F   8.25275060312  0.741365111717   12.1518203709
H   1.29405657053   1.26811789751   12.1339110344
F   3.79014043406   3.09349262081   12.0476357985
H   5.75108037203   3.62691546029   12.0310730543
C  0.110267511277   2.56473156212   13.4217827178
C   4.56977134438  0.247974138514   13.3368134849
C  0.287217370567   1.73483414892   14.7169627626
C   4.74704843268   4.07634866870   14.6376832120
F   1.01810022777   3.58357469588   13.4175590476
F   7.77393985371   3.09340086620   13.4275144283
F   5.47794134952   1.26651346029   13.3290499379
F   3.31177640518  0.779169599233   13.3475362670
F   8.17471770010  0.825381938330   14.7563859708
H   1.25009916661   1.20593015176   14.6841278517
F   3.70890736600   3.16899608364   14.6753112186
H   5.71039474494   3.54821849046   14.6058250055
C  0.213340839428   2.54904688889   16.0268274035
C   4.66481565748  0.221087844477   15.9576351447
C  0.267218021355   1.68399998698   17.2782672387
C   4.71767205277   4.01577861632   17.2185804865
F   1.24199474984   3.46462599556   16.0055908288
F   7.96016483160   3.26322849145   16.0604902922
F   5.68650060459   1.14324113577   15.9489715640
F   3.48671730231  0.931870709644   15.9739382284
H   1.18141733033   1.07967826961   17.2757373517
H   8.34187040667  0.989972111173   17.2512021426
H   3.87007157440   3.32032546788   17.1982207335
H   5.63259869228   3.41113483941   17.2145506891
C  0.212889723003   2.50178257893   18.5638940390
C   4.66904536022  0.171032954957   18.5123069232
C  0.205865390957   1.66078565000   19.8323210341
C   4.65937738977   3.99940693849   19.7965906104
F   1.29236330657   3.37651276086   18.5837148404
F   8.01640315433   3.32470929167   18.5622888753
F   5.75166324318   1.04105997341   18.5328964915
F   3.55233435909  0.998285818947   18.4949379224
H   1.09199908686   1.01585275762   19.8388507097
H   8.25336008620  0.998749961390   19.8159482149
H   3.78344193993   3.33865457239   19.7832530004
H   5.54484662336   3.35164008061   19.8044932615
C  0.181117830448   2.49295934992   21.1078724359
C   4.63900558901  0.164490881042   21.0858837332
C  0.187957806525   1.66499622858   22.3871203789
C   4.64070244622   3.99842222504   22.3760083942
F   1.26651359074   3.36022881503   21.1094379433
F   7.98873958842   3.32279930573   21.0970160222
F   5.72748282137   1.02770934473   21.0913843706
F   3.52680298546  0.998662449485   21.0779174049
H   1.07575770336   1.02145014997   22.3889055588
H   8.23869761274  0.999432595827   22.3849447099
H   3.76418710109   3.33849213607   22.3731718813
H   5.52522829954   3.34889550660   22.3781836571
C  0.174951232001   2.50327996965   23.6600471096
C   4.63248962474  0.171893360802   23.6613042752
C  0.183876346998   1.68314840757   24.9472369059
C   4.63682122150   4.01673621472   24.9605444735
F   1.26600343975   3.36371072851   23.6529125880
F   7.98735526265   3.33955230645   23.6454174291
F   5.72679481634   1.02807174145   23.6526543318
F   3.52551811708   1.01263086809   23.6478564013
H   1.07307569931   1.04135314028   24.9515583560
H   8.23579181566   1.01618240541   24.9517695438
H   3.76133519732   3.35545059465   24.9633482786
H   5.52225545032   3.36841742732   24.9630234244
C  0.173109127634   2.51494925361   26.2265877687
C   4.63106562693  0.187544408087   26.2500688615
C  0.184044591734   1.68375355218   27.5084981625
C   4.63730514406   4.02498302052   27.5457225239
F   1.26338268776   3.37624902096   26.2284641216
F   7.98482637381   3.35029193854   26.2247068036
F   5.72448036018   1.04473176162   26.2465555677
F   3.52365710801   1.02768744039   26.2460778590
H   1.07329915958   1.04199783028   27.5070419398
H   8.23592382408   1.01683339695   27.5087150077
H   3.76193579473   3.36359787451   27.5448916241
H   5.52325406334   3.37749110426   27.5443853559
C  0.174476636749   2.51540844772   28.7888538620
C   4.63225962430  0.188423290402   28.8405082606
C  0.184499326226   1.68780566346   30.0744625089
C   4.63782600381   4.02010839657   30.1325489556
F   1.26577614378   3.37533403050   28.7820815920
F   7.98703271701   3.35188212576   28.7803957231
F   5.72662742476   1.04447521290   28.8406521656
F   3.52582203665   1.02958711529   28.8420524631
H   1.07346677691   1.04568321410   30.0727230184
H   8.23656696280   1.02061787640   30.0732758213
H   3.76337664797   3.35710021333   30.1273244571
H   5.52292902489   3.37127676316   30.1280760404
C  0.174277431999   2.51085221097   31.3608893629
C   4.63165743764  0.182494266485   31.4301469206
C  0.184025838986   1.67688861380   32.6405733728
C   4.63736837966   4.00917965967   32.7195020646
F   1.26565286695   3.37063154764   31.3657352519
F   7.98632434763   3.34660664366   31.3642777594
F   5.72557226295   1.03909962355   31.4310718052
F   3.52518436781   1.02378122209   31.4307490875
H   1.07217104803   1.03343413917   32.6387596402
H   8.23700400770   1.00837110526   32.6376750926
H   3.76102602417   3.34945182509   32.7107845646
H   5.52454929012   3.36389459388   32.7115467508
C  0.172786023107   2.50621448438   33.9237414268
C   4.63097239488  0.147894093592   34.0308011887
C  0.180092825032   1.67176041309   35.2025079153
C   4.63597792863   3.94748805528   35.3070180043
F   1.26422179254   3.36597092261   33.9255534905
F   7.98626075293   3.34353574766   33.9209426480
F   5.72506422998   1.00454048787   34.0490629476
F   3.52516853268  0.989996760384   34.0478096000
H   1.07048037404   1.03138724377   35.1979312778
H   8.22993505737   1.00760828351   35.1943588840
H   3.76073889483   3.28613936490   35.2916697366
H   5.52156686571   3.29979068417   35.2929475170
C  0.167438185065   2.48860386383   36.4925167321
C   4.62566829094 0.0872240619824   36.6170841126
C  0.166035939468   1.64644016334   37.7687350879
C   4.62048797683   3.91873822847   37.9179029336
F   1.26272766302   3.34328303593   36.5083370659
F   7.98456397569   3.33100293178   36.4939509210
F   5.72333081384  0.938918829142   36.6257309766
F   3.52118870818  0.929884834886   36.6116283622
H   1.05156360163  0.999044290426   37.7713603942
H   8.21694088637  0.980847926797   37.7624449539
H   3.74623248772   3.25555146819   37.9199175480
H   5.50707156805   3.27275348057   37.9333837342
C  0.155570145967   2.47530137343   39.0503278989
C   4.60677135352  0.118462147484   39.1900239061
C  0.152875010457   1.65978300219   40.3416576358
C   4.57947733217   4.03436833717   40.5443782446
F   1.25491678996   3.32559511592   39.0504636967
F   7.97400745734   3.31872753491   39.0473737492
F   5.71320230548  0.956354420955   39.1606290072
F   3.50936193474  0.967789813699   39.1331314041
H   1.03309283935   1.00552266555   40.3526607879
H   8.19520409440   1.00496656694   40.3537796808
H   3.68769957412   3.39760735166   40.5890959414
H   5.44983275932   3.36882649649   40.6122317561
C  0.157468390086   2.52458465080   41.5998077287
C   4.59204713799  0.340114059336   41.7352005782
C  0.181776677210   1.73949671744   42.9077623659
C   4.56483448389   4.39420155772   43.1654018068
F   1.25767365162   3.37244361487   41.5621453928
F   7.97589216722   3.37005360863   41.5900485967
F   5.72541533668   1.12906466542   41.6091343375
F   3.52162826102   1.21495462140   41.6109727497
H   1.04992973872   1.07044657825   42.8998481128
H   8.21711356818   1.09763534588   42.9565302806
H   3.69656964842   3.73050688597   43.2653722293
H   5.46193188366   3.77673783228   43.2901873031
C  0.228592739676   2.62233974690   44.1541311379
C   4.52386914913  0.819973832695   44.2366893372
C  0.373718139916   1.84288087821   45.4604391101
C   4.80394048290   3.82547539199  0.169036042955
F   1.27400875705   3.52616439135   44.0371433776
F   8.00926971038   3.41484977827   44.1975905116
F   5.49857643135   1.74076302184   43.9382983090
F   3.33430377263   1.50730079599   44.1121437894
H   1.32907811279   1.31086840824   45.4495801415
H   8.52290404196   1.07106554595   45.4853031662
H   4.04442123227   3.18438937317   45.9682777290
H   5.77466144231   3.41774158728   46.0902533807
