138
Lattice="   32.0000000    0.00000000    0.00000000    0.00000000    18.0000000    0.00000000    0.00000000    0.00000000    58.0000000"
H   16.2479130228   11.8150844990   53.5294120123
C   15.4740745762   11.4125296613   52.8696136660
H   14.5006653556   11.5363077612   53.3524735241
H   15.6603386751   10.3458230336   52.7121557026
C   15.5185484565   12.1725659156   51.5614360286
F   16.7896562589   12.0483809974   51.0291044163
F   15.3444683980   13.5181348959   51.8399211204
C   14.4644054919   11.7032719425   50.5482039889
H   13.4820190561   11.8324781452   51.0209233338
H   14.6063507125   10.6249911153   50.3938890816
C   14.4229356871   12.3811505859   49.1714683971
F   15.6297310455   12.2049992542   48.5321536777
F   14.2491188846   13.7362026222   49.3177045632
C   13.2891835305   11.8164897490   48.2954127545
H   12.3373392326   11.9297779157   48.8282988135
H   13.4692762535   10.7434222868   48.1579646316
C   13.1443908216   12.4734606814   46.9183930932
F   14.3521007903   12.3907422191   46.2644519939
F   12.8584330567   13.8090210566   47.0809877804
C   12.0460433404   11.8247412421   46.0531880445
H   11.0902213026   11.8825692877   46.5897526434
H   12.2968756732   10.7638694150   45.9248892094
C   11.8751834665   12.4615358333   44.6647628704
F   13.0629560077   12.3965540277   43.9790530185
F   11.5364338702   13.7781342235   44.8020545247
C   10.8173438596   11.7483424066   43.7718918310
F   9.59397443532   11.7515702330   44.4411936861
H   11.1245570113   10.7017147704   43.6380000331
C   10.6386941244   12.3852053479   42.3624444114
F   11.8342357601   12.2092654848   41.7083174120
F   10.4239825678   13.7260762920   42.5058741500
C   9.50635037644   11.7725660606   41.5254472035
H   8.56714286744   11.8716847268   42.0811932119
H   9.71112681052   10.7045311573   41.3769957721
C   9.33825964971   12.4235628955   40.1395190353
F   10.5388559917   12.3751885732   39.4707329473
F   9.02020591008   13.7524586435   40.3009969807
C   8.25549452061   11.7506481398   39.2741975175
H   7.28948660092   11.8393647589   39.7874975734
H   8.48255319832   10.6831931852   39.1644399000
C   8.11939921903   12.3652625607   37.8741522984
F   9.29432497906   12.2262438269   37.1922197959
F   7.84446566764   13.7040403056   37.9859437981
C   6.97263359319   11.7508961292   37.0299018539
H   6.02703042910   11.9023428127   37.5676735466
F   7.18960460018   10.3791053274   36.9152048485
C   6.84435616615   12.3692044112   35.6092300739
F   8.04338163288   12.2382185470   34.9675417465
F   6.59608698362   13.7071420525   35.7869445927
C   5.73001203245   11.7584822031   34.7494793274
H   4.78353651375   11.8313835307   35.3007385034
H   5.94473498229   10.6930158046   34.6011097885
C   5.56365091319   12.4450780410   33.3755632142
F   6.75770897452   12.3809492619   32.6967619329
F   5.27941226155   13.7784647284   33.5556970671
C   4.45184422264   11.8265639684   32.5196473461
H   3.50590572640   11.9019973543   33.0664858645
H   4.67499693972   10.7612654637   32.3828549972
C   4.28333769186   12.4769419649   31.1380306851
F   5.45709496503   12.3469877252   30.4318255886
F   4.00894186223   13.8108029387   31.2592614316
C   3.19056298787   11.7975453633   30.2834432566
F   2.02533737577   11.6537862873   31.0280127045
H   3.56167766648   10.7943960689   30.0226365292
C   2.81592550969   12.5017076325   28.9486992343
F   3.95246146133   13.0878346916   28.4276817403
F   1.91828788889   13.5148499970   29.1858069255
C   2.32247324101   11.4823605003   27.9616664978
H   2.20978600990   10.4534666932   28.2920384272
C   2.17530339235   11.7567995087   26.6608619927
F   2.23790042332   13.0335181133   26.2516191545
C   2.05133380741   10.7548714745   25.5498814438
H   2.31031552037   9.76308270973   25.9399288354
H   1.02965074754   10.6987891013   25.1536438235
C   2.99059222845   11.1137653048   24.3826409064
F   2.42314276121   12.1275414149   23.6638151021
F   4.18071036839   11.5872554998   24.8940794495
C   3.38775876686   9.91689825656   23.4658580944
H   4.15252587226   9.34318145177   24.0116168737
F   2.29344638594   9.07815559335   23.2588302543
C   3.97020115254   10.3310838741   22.0833221957
F   3.02755985223   11.0426468750   21.3973754769
F   5.02743559186   11.1682914670   22.3453717588
C   4.44520908951   9.13873047809   21.2390181794
H   5.19901052665   8.58292567777   21.8097824502
H   3.59619273522   8.46415637438   21.0735911583
C   5.06441389196   9.53285331126   19.8864897996
F   4.19984991146   10.3634268799   19.2165578896
F   6.21532037358   10.2552237049   20.1161258463
C   5.38602368551   8.32093517399   18.9962477680
H   6.13974492800   7.69498154832   19.4895800694
H   4.47382358654   7.72100601304   18.8907820522
C   5.89810464441   8.68848977972   17.5970090731
F   4.96564120206   9.43987522512   16.9261821588
F   7.02675417160   9.44877955744   17.7130631037
C   6.17873786276   7.43721075052   16.7125497316
F   7.06947757403   6.59692015261   17.3831630289
H   5.23301886188   6.89083119094   16.5875045797
C   6.76135036083   7.76182180853   15.3095092263
F   5.82338166815   8.52014330296   14.6553380386
F   7.88413518865   8.52311911268   15.4782408410
C   7.10846898963   6.51538040151   14.4762307313
H   7.84874143034   5.93428509585   15.0371791649
H   6.20785308107   5.89964323281   14.3552083414
C   7.65888716875   6.84189424754   13.0750058152
F   6.71530213785   7.58312932257   12.4030438535
F   8.77781464722   7.63081713196   13.2065980133
C   8.00795729016   5.60991946188   12.2164613764
H   8.73484382863   4.98804391098   12.7541423520
H   7.09991611839   5.00937571088   12.0802427715
C   8.57737614416   5.96816644515   10.8291790745
F   7.67874279409   6.73702498676   10.1472835942
F   9.73308336784   6.69943204858   10.9650430875
C   8.94559014522   4.73488536229   9.95978310575
H   9.74520947940   4.17813052425   10.4676720089
F   7.83429026513   3.89807597975   9.86116683745
C   9.43255382094   5.10120012044   8.52664776889
F   8.45834949902   5.81722693759   7.89482671236
F   10.5252490994   5.92028923708   8.67709621654
C   9.80321081379   3.87738834054   7.67451751632
H   10.5532032240   3.28681775170   8.21518172474
H   8.90974958138   3.25049735694   7.55837822761
C   10.3627104721   4.22073324021   6.27898192838
F   9.44926823222   4.99550418070   5.60332505630
F   11.5049685780   4.97487743677   6.42000385272
C   10.6761631565   2.97817507071   5.43373713827
H   11.3692549391   2.33031909054   5.98381247907
H   9.74103010986   2.42286267642   5.29065234179
C   11.2859887263   3.23087739568   4.04673477890
F   10.4512399986   4.00013598886   3.26894509930
F   12.4779578291   3.89009872387   4.15905900971
C   11.4965055998   1.90380977053   3.27606860066
F   12.3100913395   1.05918925541   4.03241186544
H   10.5181105846   1.41497790806   3.16207712070
C   12.1067494477   1.99879024682   1.86723250696
F   11.1853093831   2.54961960684   1.01569236766
F   13.2365733330   2.75914672806   1.82128098046
H   12.3644930623  0.989819151348   1.50564105060
