138
Lattice="   32.0000000    0.00000000    0.00000000    0.00000000    18.0000000    0.00000000    0.00000000    0.00000000    58.0000000"
H   24.0921971800   2.47347761889   53.5381118392
C   23.3123865584   2.08039903997   52.8790168333
H   22.3396055652   2.20619570934   53.3648158903
H   23.4952070651   1.01447566982   52.7078525693
C   23.3539916342   2.84474460652   51.5721573958
F   24.6229340311   2.73050046206   51.0372184735
F   23.1695275091   4.18858303304   51.8476598659
C   22.3057879851   2.35894059618   50.5572931468
H   21.3205069867   2.46138670536   51.0311388128
H   22.4820799595   1.28645089682   50.4021617526
C   22.2540508569   3.04229110541   49.1808510408
F   23.4615694053   2.88014183737   48.5421965319
F   22.0674872139   4.39426637884   49.3418656490
C   21.1204947559   2.46905465532   48.2987452240
H   20.1743005823   2.57609108136   48.8437565369
H   21.3127080693   1.39767542107   48.1633971656
C   20.9442863125   3.11263785542   46.9146632401
F   22.1363325533   3.05026607930   46.2371408220
F   20.6385360324   4.44527744570   47.0733524431
C   19.8388201204   2.45018487309   46.0590698064
H   18.8768582958   2.53837726557   46.5789496510
H   20.0633033296   1.38167706574   45.9456630128
C   19.6906851903   3.07208210027   44.6618945890
F   20.8757474327   2.97696450188   43.9801799857
F   19.3779576743   4.39623925022   44.7897624790
C   18.6143736291   2.38481928384   43.7708471674
F   17.3954708818   2.40969080294   44.4505439460
H   18.8995109313   1.33317409365   43.6220453108
C   18.4359872646   3.04031637254   42.3674475240
F   19.6381719153   2.89678404337   41.7203639956
F   18.1969465274   4.37562750382   42.5207937822
C   17.3166871406   2.40792614179   41.5196677373
H   16.3694094745   2.51042078981   42.0627474645
H   17.5338030239   1.33871853598   41.4008827137
C   17.1637112824   3.04125079631   40.1227902267
F   18.3631380065   2.96260709054   39.4597783917
F   16.8698751926   4.37680445686   40.2778516364
C   16.0627514738   2.38978635685   39.2577437350
H   15.1073683627   2.48737058814   39.7891839517
H   16.2792576218   1.32191869746   39.1365439557
C   15.9223042229   3.02346360043   37.8615708727
F   17.0994250541   2.89190943432   37.1844210583
F   15.6571026332   4.36333110349   37.9921918367
C   14.7653390306   2.42407542909   36.9990284844
H   13.8151116391   2.60551093540   37.5223779089
F   14.9515765457   1.04626106998   36.9002242392
C   14.6459923449   3.02013464709   35.5641899215
F   15.8453179718   2.89703106248   34.9267084120
F   14.3891006002   4.35838684241   35.7328519840
C   13.5394709496   2.37642696753   34.7001583298
H   12.5813810638   2.45684180352   35.2291275727
H   13.7724745126   1.31171663677   34.5794475972
C   13.3904184665   3.02440193746   33.3072222936
F   14.5865382542   2.91578995621   32.6404124749
F   13.1318186222   4.36536098311   33.4718934086
C   12.2834580158   2.41885720416   32.4202218278
H   11.3236949036   2.46141517196   32.9482951341
H   12.5230841484   1.36299663332   32.2413112735
C   12.1256519684   3.11578815675   31.0505937737
F   13.3042259852   3.03339968427   30.3524895602
F   11.8276546203   4.43947107551   31.2192720021
C   11.0395096835   2.45577846140   30.1578749383
F   9.82889919710   2.45249739867   30.8507232811
H   11.3384671871   1.40898141322   29.9961497631
C   10.7739551157   3.08757726763   28.7537987310
F   11.9870515052   3.24614374145   28.1076016911
F   10.2463343314   4.35435764640   28.8981081501
C   9.88011998835   2.19322464188   27.9491252467
H   9.59486791476   1.25734304530   28.4227778062
C   9.45516018619   2.36309065211   26.6892629021
F   8.79010741289   1.31156292160   26.1572691919
C   9.58660002259   3.54400878945   25.7499161418
H   9.32642678429   4.46197745258   26.2938456491
H   10.6299614168   3.65567930468   25.4273448039
C   8.71666238946   3.39450255283   24.4918436811
F   9.20184490601   2.33554429677   23.7728982691
F   7.41881709132   3.10219804637   24.8562399268
C   8.61917632764   4.65145871253   23.5760035214
H   8.01747559745   5.40806633921   24.1027945889
F   9.89187275316   5.17613687635   23.3671048134
C   7.96968971320   4.37895951468   22.1800987872
F   8.71339971989   3.44061475808   21.5249028849
F   6.72541450075   3.84436328151   22.4072742085
C   7.84441480258   5.64106967770   21.3086569698
H   7.24482418937   6.37891847996   21.8561395438
H   8.84887580692   6.05601153594   21.1663588878
C   7.18392913975   5.41599502842   19.9322311728
F   7.83541089885   4.40171867001   19.2767148955
F   5.88702763838   4.99443781438   20.1295869404
C   7.17415962337   6.68069347555   19.0434878819
H   6.58774736271   7.45901075813   19.5463306768
H   8.20394383227   7.04635017748   18.9435080827
C   6.58900227978   6.47370381433   17.6344370708
F   7.31123353435   5.51574302892   16.9645231450
F   5.29980006533   6.03002682567   17.7392425327
C   6.62705448742   7.75568385187   16.7382869439
F   6.03848513609   8.81666117662   17.4271146590
H   7.68091893455   8.01459777132   16.5600419951
C   5.92170062512   7.60352187780   15.3520715363
F   6.56694847858   6.58400708678   14.6982021140
F   4.62343486032   7.22364250791   15.5473078699
C   5.95594061799   8.87755001243   14.4845227250
H   5.43276698268   9.67597122967   15.0229203589
H   7.00211055404   9.18127657378   14.3530209885
C   5.31682749111   8.70614137464   13.0889290356
F   5.97512515762   7.70497379197   12.4185301417
F   4.01267894377   8.29482600021   13.2439592761
C   5.32459689553   9.98363740549   12.2224838910
H   4.74606631542   10.7538935794   12.7471738992
H   6.35287897954   10.3468090992   12.1130043133
C   4.71701752264   9.77895125998   10.8207732142
F   5.43298905064   8.83244999104   10.1453996894
F   3.42569261003   9.32657174995   10.9428535565
C   4.65165440987   11.0735963382   9.95388072288
H   4.02788356344   11.8122650072   10.4785729570
F   5.93919235096   11.5933476520   9.83370854729
C   4.06548325404   10.8700086957   8.52395141141
F   4.78562626209   9.90474223153   7.88190363740
F   2.78015663102   10.4110709568   8.68540240581
C   4.05039536866   12.1464537984   7.66941775792
H   3.47416317555   12.9196590099   8.19361642394
H   5.07988676098   12.5067472075   7.56072715433
C   3.43675250625   11.9535343461   6.26891595582
F   4.12223582878   10.9660515203   5.60273724969
F   2.13527427326   11.5252035799   6.40099647129
C   3.45365372400   13.2348874297   5.42731713087
H   2.89135444267   14.0117550012   5.95847303733
H   4.49186503965   13.5760640434   5.33539109996
C   2.86379503270   13.1174890440   4.01468015530
F   3.55453775453   12.1986343502   3.26171000098
F   1.56304354337   12.7040748439   4.06972767332
C   2.95657144193   14.4593914925   3.25226581402
F   2.36470153685   15.4593960694   4.02643034968
H   4.02028816424   14.7095835361   3.13195132920
C   2.30364117611   14.5337477888   1.86124245460
F   2.93906405975   13.6947229697  0.985639467156
F  0.991818197484   14.1908706327   1.89913383976
H   2.37968835973   15.5640715699   1.47806770630
