138
Lattice="   32.0000000    0.00000000    0.00000000    0.00000000    18.0000000    0.00000000    0.00000000    0.00000000    58.0000000"
H   16.5552938990   2.46752905067   53.5256380853
C   15.7747895318   2.06571566464   52.8725138208
H   14.8033073192   2.17566431734   53.3649444491
H   15.9733563407   1.00525998407   52.6859030424
C   15.7932044784   2.83870594839   51.5717298744
F   17.0666120766   2.75818699144   51.0367532192
F   15.5741217900   4.17548615281   51.8560458891
C   14.7540235539   2.33908681443   50.5595250942
H   13.7684757486   2.43515546371   51.0319441034
H   14.9429960037   1.27256090336   50.3875290754
C   14.6794519067   3.01964271823   49.1908722486
F   15.8879927431   2.89185735438   48.5472099837
F   14.4506194448   4.36432165993   49.3592823484
C   13.5665831915   2.41261848936   48.3128029017
H   12.6188240798   2.50325661721   48.8590182262
H   13.7787789609   1.34343019029   48.1807411869
C   13.4058124304   3.05616546109   46.9265313028
F   14.6012925654   2.97360427828   46.2516171043
F   13.1244490622   4.39163207778   47.0842679498
C   12.3030784342   2.41504054026   46.0649573345
H   11.3440039880   2.53041888122   46.5827259283
H   12.5159005882   1.34404185315   45.9609029256
C   12.1792972228   3.03264346930   44.6639475466
F   13.3682324401   2.90099781197   43.9892925197
F   11.9069347597   4.36465922658   44.7853452488
C   11.0984184907   2.35702968596   43.7691446719
F   9.88192254078   2.36158880601   44.4507544208
H   11.4036959780   1.31094367906   43.6089487036
C   10.8936523863   3.03653642151   42.3804900241
F   12.1037366306   2.97522006372   41.7368620658
F   10.5830157483   4.35370917554   42.5682473848
C   9.79658723396   2.39205319091   41.5158354324
H   8.84503672106   2.48691607510   42.0529497440
H   10.0149236049   1.32463688928   41.3893155563
C   9.65707384564   3.02898478284   40.1172543117
F   10.8549830129   2.90168635922   39.4532838338
F   9.41494673924   4.37336206217   40.2608616304
C   8.54547492372   2.40337684963   39.2536118092
H   7.58811598594   2.51364231079   39.7779167205
H   8.76092513157   1.33580110943   39.1338008846
C   8.41111876245   3.02001701081   37.8513602083
F   9.59367563320   2.88247714514   37.1836615538
F   8.14398504691   4.36018191758   37.9610167547
C   7.26208038824   2.38597238060   36.9988434543
H   6.31465029491   2.52028041469   37.5426006681
F   7.50568801708   1.01748662883   36.8806705560
C   7.10139655351   2.99974766242   35.5735179322
F   8.30495441665   2.93912676669   34.9305191926
F   6.78220623766   4.32178132018   35.7676435141
C   6.01958323862   2.34201084628   34.6962096245
H   5.05768851016   2.42258927323   35.2167625110
H   6.25919862182   1.27921596728   34.5791853057
C   5.86941210575   2.98125356136   33.2967998501
F   7.06189446377   2.86593295052   32.6213580163
F   5.61970572471   4.32452205064   33.4475599784
C   4.75188393039   2.36168110141   32.4311917615
H   3.80062775773   2.42893958762   32.9711241347
H   4.98474281489   1.30134721029   32.2678778471
C   4.57708868037   3.03211585190   31.0555365957
F   5.75184064198   2.93259384954   30.3484332094
F   4.29111335502   4.35803427294   31.2140018582
C   3.47182503520   2.38907258838   30.1699815235
F   2.26065346948   2.41397002448   30.8576063796
H   3.73711079109   1.33712419469   29.9851861581
C   3.24997857615   3.05190893808   28.7796401647
F   4.46580335677   3.03368425247   28.1119508332
F   2.91901570207   4.38426464292   28.9216285097
C   2.21683529620   2.33384383692   27.9774381590
H   1.51595904815   1.68245515118   28.4943386912
C   2.12976892010   2.43232008439   26.6464344439
F   1.21248254590   1.65175778783   26.0399294302
C   2.94398160772   3.28946827354   25.7126506894
H   3.30303340291   4.16513168960   26.2658241567
H   3.83408612306   2.74673322444   25.3662166652
C   2.14876199687   3.76526844600   24.4925010540
F   1.74594672105   2.68824298037   23.7583942921
F   1.01711501554   4.42359551182   24.9334522022
C   2.93316637078   4.75096530717   23.5793518007
H   3.03169235695   5.70697548062   24.1136310981
F   4.20833952671   4.22662956692   23.3614778932
C   2.28352349287   5.03269264832   22.1940136629
F   2.09474061125   3.85144239137   21.5402764056
F   1.04928855620   5.58342780739   22.4479850725
C   3.12263994661   5.98184611754   21.3208374268
H   3.23138325149   6.93000654851   21.8621985023
H   4.11593019372   5.53331812356   21.2027807252
C   2.53550945615   6.26947795489   19.9234592972
F   2.36887583212   5.08038866676   19.2555981349
F   1.28831527038   6.82656855119   20.0782225430
C   3.41772005539   7.19530546782   19.0548373572
H   3.54975741339   8.15277701876   19.5722629986
H   4.40112368324   6.71866147871   18.9574705406
C   2.86254607748   7.46758383322   17.6413752563
F   2.71445625357   6.28119247416   16.9643474307
F   1.63062972799   8.04484781761   17.7459039361
C   3.78476101464   8.35499971066   16.7395925037
F   4.09314708696   9.53821391028   17.4105777716
H   4.72482928387   7.80642798160   16.5735361527
C   3.17483343975   8.72067494623   15.3456454975
F   2.93538126056   7.53555546713   14.6986371909
F   1.97432372996   9.34276143002   15.5284858300
C   4.08444035203   9.62253165402   14.4858230929
H   4.24649916231   10.5592662825   15.0322842688
H   5.05606620911   9.12946807335   14.3579428197
C   3.51461261145   9.94767562808   13.0875715138
F   3.30308076115   8.77071435432   12.4105688779
F   2.29180351983   10.5569300312   13.2355864564
C   4.42083541931   10.8521915188   12.2238583478
H   4.55817564582   11.8088646712   12.7419541555
H   5.40000331567   10.3740020905   12.1061806385
C   3.85840551881   11.1249537022   10.8177668698
F   3.73432810743   9.94134236628   10.1480404320
F   2.61456203638   11.6915408944   10.9237687552
C   4.72128887877   12.1001570102   9.95770710196
H   4.80223135605   13.0565414756   10.4950856670
F   6.00483181688   11.5668913467   9.82777980805
C   4.14324656116   12.3899259334   8.53583692893
F   3.89911059433   11.2112717293   7.89327314284
F   2.94053664921   13.0214394635   8.73050437969
C   5.04259872483   13.2755447468   7.65957263949
H   5.19035520486   14.2304414776   8.17854877297
H   6.02050176828   12.7923185500   7.55120345032
C   4.47084782641   13.5669732792   6.25505851191
F   4.29011995508   12.3805467223   5.58371588510
F   3.23497683020   14.1533584580   6.38071427837
C   5.38126769327   14.4778026070   5.41748450885
H   5.53882164132   15.4186466475   5.95704550954
H   6.35467323425   13.9834245128   5.30654692350
C   4.88291823863   14.8377525996   4.01100998794
F   4.71105622861   13.7084324906   3.24524434520
F   3.68060742955   15.4794337260   4.07218490732
C   5.91028964675   15.7220255674   3.25984687602
F   6.19308280048   16.8528617800   4.02976615179
H   6.84191161278   15.1460979564   3.15109741654
C   5.51166911435   16.2080159706   1.85433182621
F   5.41384085982   15.1365465202   1.00453728096
F   4.32431194225   16.8734674741   1.85306070180
H   6.28318850314   16.8903202099   1.46341125866
