138
Lattice="   32.0000000    0.00000000    0.00000000    0.00000000    18.0000000    0.00000000    0.00000000    0.00000000    58.0000000"
H   16.5063114208   2.44842743341   53.5309254598
C   15.7265059844   2.06167125610   52.8675755251
H   14.7581603488   2.16308087684   53.3668663686
H   15.9160062763  0.995410603978   52.7025197346
C   15.7559344304   2.83836887972   51.5669145895
F   17.0329860432   2.74546434989   51.0368457084
F   15.5400148316   4.18128660894   51.8353140628
C   14.7199592937   2.34831699960   50.5485894273
H   13.7357315451   2.43536811351   51.0300030425
H   14.8951894077   1.27773042927   50.3765892244
C   14.6372171713   3.01897050768   49.1701587109
F   15.8493572231   2.88159033527   48.5165901306
F   14.4047861711   4.37007319534   49.2855533895
C   13.5046035805   2.39607047913   48.3245099946
H   12.5574599541   2.47608071780   48.8758328949
H   13.7132634693   1.32628234689   48.2008499906
C   13.3494829869   3.05107099729   46.9493866503
F   14.5675154426   2.97279870530   46.3178697125
F   13.0524860774   4.38655471683   47.1208013810
C   12.2515404765   2.40834674654   46.0799022820
H   11.2970766905   2.50847478615   46.6154767835
H   12.4617538192   1.33498509221   45.9766572299
C   12.1060277497   3.02858284506   44.6758468235
F   13.2894813090   2.89904473701   43.9872525432
F   11.8431650875   4.36307072314   44.7827907172
C   11.0401365249   2.34231835157   43.7685992715
F   9.79576649256   2.35015231929   44.3988163901
H   11.3368639534   1.29097217430   43.6456941031
C   10.8523125427   3.01911144522   42.3718678583
F   12.0354592661   2.93534289564   41.6682225943
F   10.5765040388   4.34174715804   42.6014975883
C   9.72775420042   2.39026774908   41.5240336104
H   8.78613100668   2.47211303982   42.0837447433
H   9.94344122201   1.32035978772   41.3928419651
C   9.57196531254   3.03677169171   40.1278386477
F   10.7739249501   2.95288691060   39.4699590235
F   9.27209915326   4.37502814712   40.2739082813
C   8.48190748601   2.38675165643   39.2576477902
H   7.52076943717   2.46673432613   39.7828690830
H   8.71191604990   1.32231086316   39.1340663415
C   8.34191861524   3.00388408345   37.8497617297
F   9.50718105896   2.84079428817   37.1470704611
F   8.10316372742   4.35224231137   37.9336278700
C   7.17937030268   2.38382837254   37.0100880316
H   6.23682387641   2.52556646014   37.5557489665
F   7.38745630028   1.00833137618   36.9228383615
C   7.05696002860   2.99101382536   35.5772773768
F   8.27277717766   2.89883524541   34.9619404754
F   6.76780429295   4.32413313122   35.7582025997
C   5.96944779417   2.34631102599   34.7023164575
H   5.01897392180   2.43246994428   35.2478408054
H   6.20271769858   1.27884654132   34.5912008178
C   5.79619315415   2.98422106485   33.2972446975
F   6.99222892238   2.92237276437   32.6201186443
F   5.48315935381   4.31651251692   33.4345887757
C   4.70332406442   2.33208635484   32.4250586911
H   3.74605451568   2.38128260144   32.9529863065
H   4.94880766802   1.27366408997   32.2857857013
C   4.51535756125   3.00262306820   31.0498776110
F   5.66495364414   2.89816193387   30.2960372691
F   4.25916461224   4.33075693897   31.2433831409
C   3.39768497547   2.36072121167   30.1706744008
F   2.19024447914   2.38698363596   30.8632468161
H   3.66666131892   1.30811743508   29.9961266729
C   3.21261390445   3.02087600382   28.7696915046
F   4.44329838104   2.90144392343   28.1262598715
F   2.98697612617   4.37366483480   28.9116918267
C   2.12105978598   2.41988161163   27.9496945591
H   1.25030413974   2.04651022655   28.4812432238
C   2.13633921898   2.38742297629   26.6139191661
F   1.06512178508   1.85825590323   25.9846687251
C   3.22301635476   2.81639243142   25.6898173531
H   3.91613447724   3.45489831283   26.2360222641
H   3.78203666015   1.93903595264   25.3406026789
C   2.74185430137   3.63028179630   24.5058651302
F   1.78420081140   2.96511926662   23.8017657992
F   2.17040680363   4.78697126063   24.9945334068
C   3.92058681966   4.04064935371   23.5802841272
H   4.47167522937   4.82850896410   24.1132959304
F   4.78386834446   2.95409809297   23.4089305730
C   3.52202555320   4.58702035026   22.1827119380
F   2.77670609984   3.66631513409   21.4909858690
F   2.73131584431   5.68302459600   22.4403850112
C   4.72125251825   4.99422673291   21.3072910890
H   5.31369086444   5.74868512614   21.8432977502
H   5.37430271049   4.12217376665   21.1755458267
C   4.32752435438   5.54835179205   19.9199973217
F   3.54764684121   4.61930460417   19.2795619641
F   3.53556923363   6.66291044088   20.0889950031
C   5.56034859504   5.90116124061   19.0468834504
H   6.16337091934   6.64989475364   19.5774611363
H   6.17371487813   4.99564953797   18.9389455547
C   5.22846732982   6.43777894829   17.6365338184
F   4.47899011607   5.50867497876   16.9496624960
F   4.47968847737   7.57348739361   17.7410917354
C   6.47511561079   6.70823644320   16.7323334748
F   7.34120247992   7.59819447917   17.3661794903
H   7.01386099089   5.75706827812   16.6133372844
C   6.15544324388   7.33804085551   15.3364440659
F   5.37797252833   6.46241121910   14.6195839166
F   5.42696477723   8.47663813874   15.5631257941
C   7.41022411408   7.67449171360   14.5015115179
H   8.01762317593   8.39908122160   15.0587091107
H   8.00238890809   6.75700234635   14.3820706568
C   7.07956761179   8.22197954641   13.0944199907
F   6.32327318906   7.28399778033   12.4341404010
F   6.30906290234   9.35479138799   13.2287078930
C   8.28621040668   8.56744625675   12.2143614278
H   8.88985498759   9.33089653522   12.7249434415
H   8.91265199465   7.67622017240   12.0946398880
C   7.91277776012   9.08878879822   10.8052245226
F   7.19994804032   8.14677630843   10.1094347822
F   7.12629712180   10.2085420060   10.8872305851
C   9.17574907016   9.48713457497   9.97726953589
H   9.71742346468   10.2699522437   10.5321649325
F   10.0075113211   8.37010915436   9.89492225577
C   8.84117956436   10.0157651419   8.54440956905
F   8.07500258806   9.08103445251   7.91507165550
F   8.07811060183   11.1453189799   8.72247439230
C   10.0548179548   10.3690256393   7.67460997256
H   10.6505698432   11.1170142249   8.21307689692
H   10.6687447342   9.46506325764   7.56364935963
C   9.71925711200   10.9306219082   6.26360784490
F   8.93109381448   10.0264285783   5.58464311428
F   8.97758720629   12.0823165255   6.37924611039
C   10.9631640810   11.2452243627   5.41525785783
H   11.5967541323   11.9697287899   5.94524683658
H   11.5460406689   10.3235248446   5.29508713923
C   10.7125011519   11.8001769070   4.00486411355
F   9.99858859608   10.9043727324   3.23986754091
F   10.0002490980   12.9679460693   4.03731390389
C   12.0465419738   12.0398585338   3.25396836902
F   12.8778164082   12.8517969637   4.02337208570
H   12.5521858970   11.0708114568   3.13157370149
C   11.9122633541   12.6566951739   1.85307286947
F   11.1860047847   11.7971262710   1.06960649004
F   11.2859323117   13.8656824643   1.86892317740
H   12.9043194528   12.8045307348   1.39518357877
