576
Lattice="22.689968 0.0  0.0  0.000000 9.454153  0.0  0.000000 0.000000 38.270413"
O   0.888540   -0.086032   1.421517
C   1.815162   0.533135   1.306771
C   2.305261   0.666622   -0.022836
O   1.772208   0.077021   -0.808028
C   3.422310   1.534094   -0.253492
C   3.964742   2.280136   0.853593
O   4.810971   2.910357   0.626427
C   3.446856   2.093443   2.199485
O   3.936037   2.637018   3.024671
C   2.284495   1.293528   2.423050
S   1.416325   1.320486   4.057660
O   2.717693   5.921494   5.470555
C   2.541741   4.926989   5.849376
C   2.296297   3.925121   4.905499
O   2.182284   4.171179   3.844073
C   2.031612   2.568993   5.263183
H   2.872540   5.533860   8.206471
C   2.195853   2.226894   6.637664
O   2.071379   1.152357   6.975306
C   2.404933   3.221939   7.631490
O   2.380464   2.928319   8.733775
C   2.627786   4.621902   7.289393
H   0.131711   3.518781   1.660447
H   4.641908   -2.838086   0.799968
C   3.989114   0.700255   35.859314
O   2.603995   6.683910   10.737752
C   3.319178   5.845544   10.580591
C   3.546157   5.140806   9.327401
H   5.299796   -0.698732   2.542584
C   4.520058   4.086698   9.257498
O   4.593244   3.507800   8.339971
C   5.311623   3.673551   10.374586
O   5.999272   2.828111   10.298083
C   5.182254   4.435302   11.591566
O   5.854630   4.238292   12.412536
C   4.229910   5.492207   11.645106
S   4.324910   6.633537   13.139097
O   3.575785   1.993922   15.063531
C   3.926471   2.989345   15.242495
C   3.951530   3.969431   14.194489
O   3.509602   3.800660   13.187453
C   4.395927   5.335318   14.361988
H   4.980444   2.333337   17.291978
C   4.902713   5.674452   15.680590
O   5.289527   6.691581   15.855113
C   5.101382   4.677956   16.679128
O   5.622213   4.942014   17.652225
C   4.591980   3.378481   16.401752
H   1.864381   7.101125   23.409029
O   2.809679   4.271223   20.870989
C   3.226873   3.343116   20.388403
C   3.773144   3.507827   19.076573
O   3.844920   4.498834   18.613835
C   4.372746   2.327780   18.457268
H   3.993043   -0.990260   30.803821
C   4.228383   1.018479   19.128627
O   4.541555   0.124595   18.666552
C   3.599595   0.926363   20.368009
O   3.466701   -0.000177   20.849605
C   3.118190   2.080994   21.040115
S   1.803410   1.901999   22.379726
O   5.849479   0.448027   25.106967
C   4.759188   0.534545   25.048948
C   4.050952   0.955866   23.878765
O   4.699148   1.154459   22.997493
C   2.683799   1.331526   23.849570
H   4.614399   0.124240   27.474021
C   1.952213   1.121995   25.075888
O   0.870871   1.295249   25.102484
C   2.587995   0.668431   26.274171
O   1.946877   0.530982   27.194650
C   4.007608   0.349257   26.262834
H   0.934316   13.210574   34.527785
H   3.457561   1.120383   12.178873
O   5.253748   0.268288   29.916141
C   4.502730   -0.546496   29.694851
C   4.119952   -0.782326   28.305734
H   7.180988   0.250027   34.217462
C   3.288967   -1.867059   27.847820
O   3.229813   -1.997909   26.769473
C   2.596083   -2.847477   28.628218
O   2.037501   -3.624609   28.136604
C   2.484327   -2.861347   30.075787
O   1.914073   -3.718556   30.447854
C   3.134129   -2.031105   30.999712
S   2.783356   -2.524789   32.621375
O   3.786037   -1.026969   37.151110
C   3.837236   -0.719079   36.134861
C   3.761276   -1.657237   35.068630
O   3.666132   -2.737762   35.290576
C   3.695412   -1.241039   33.732569
H   3.896264   1.706121   36.769756
C   3.899043   0.132024   33.398485
O   4.019348   0.479522   32.382521
C   4.075605   1.055679   34.466957
O   4.310187   2.078284   34.206516
O   8.886926   0.317693   4.057837
C   9.977240   0.388000   3.814644
C   10.463069   0.447161   2.467720
O   9.738447   0.457304   1.650359
C   11.882132   0.509578   2.186911
C   12.746090   0.703836   3.350293
O   13.838522   0.850308   3.138659
C   12.233834   0.593901   4.675947
O   12.914151   0.503815   5.583157
C   10.847435   0.345184   4.924006
S   10.256527   -0.566813   6.399025
O   11.883297   -0.006462   10.989647
C   11.756660   0.494619   10.034099
C   11.383762   -0.251767   8.908126
O   11.266957   -1.294160   9.077746
C   11.242953   0.339142   7.590897
H   12.101148   2.813831   10.909563
C   11.572499   1.721209   7.433973
O   11.651046   2.202241   6.429844
C   11.848261   2.509126   8.604900
O   12.114498   3.569214   8.461060
C   11.919434   1.965513   9.927074
H   7.796090   3.063555   7.663866
H   12.383326   -2.743934   12.553552
C   11.667318   -0.206359   38.213313
O   10.487934   0.843213   12.183235
C   11.362028   1.197645   12.732120
C   12.187061   2.317530   12.216446
H   8.180843   -13.441662   17.137460
C   13.186601   2.889172   13.041867
O   13.773636   3.758009   12.709246
C   13.422852   2.374966   14.368747
O   14.185475   2.793838   15.079704
C   12.726121   1.210181   14.801598
O   12.981422   0.770091   15.719302
C   11.710625   0.611822   13.989427
S   10.901783   -1.036798   14.234686
O   12.210089   -4.318647   17.644099
C   11.975688   -3.299799   17.507314
C   11.791370   -2.881692   16.195061
O   11.995352   -3.560642   15.386319
C   11.363027   -1.520909   15.974908
H   11.588690   -2.896551   19.853548
C   11.351042   -0.586059   17.053826
O   11.148084   0.470523   16.840192
C   11.663676   -0.965327   18.380714
O   11.548967   -0.226843   19.181895
C   11.774336   -2.391828   18.655562
H   7.538361   -0.840480   20.258004
O   9.811386   -1.340446   23.923566
C   10.630699   -1.333664   23.139381
C   10.577787   -2.218444   21.995063
O   9.705921   -2.929626   21.694054
C   11.636869   -2.116493   21.027805
H   9.197690   4.866668   30.029456
C   12.726707   -1.221607   21.328107
O   13.599928   -1.204197   20.654285
C   12.735586   -0.341903   22.469678
O   13.612237   0.324618   22.636045
C   11.665848   -0.401574   23.422417
S   11.387077   1.072916   24.522970
O   10.528232   -1.982113   28.378114
C   10.282221   -1.086664   27.849024
C   10.826916   -0.782256   26.578934
O   11.453300   -1.480635   26.050184
C   10.436134   0.455200   25.957453
H   9.071381   -0.264975   29.807311
C   9.544348   1.385139   26.545732
O   9.249308   2.298870   26.029968
C   9.003299   1.071663   27.850130
O   8.253243   1.709123   28.353305
C   9.438023   -0.120585   28.511851
H   7.073313   -1.848392   25.775154
H   14.543646   -8.735126   25.161396
O   8.713128   -1.770183   32.092111
C   9.727648   -1.345630   31.861111
C   10.036872   -0.501457   30.728419
H   10.801128   -5.540897   40.134606
C   11.378226   -0.010131   30.530389
O   11.668810   0.649199   29.726073
C   12.393613   -0.308435   31.477649
O   13.426230   0.062117   31.398599
C   12.142210   -1.193839   32.587812
O   13.011494   -1.480639   33.204064
C   10.819832   -1.701851   32.730671
S   10.574556   -2.654004   34.325737
O   11.208699   -2.128256   39.248402
C   11.243723   -1.563862   38.293550
C   10.995701   -2.313362   37.087257
O   10.754352   -3.390151   37.196434
C   11.083906   -1.716913   35.809785
H   12.378741   0.368501   39.243678
C   11.422903   -0.327263   35.717115
O   11.499128   0.209059   34.766001
C   11.603191   0.445005   36.924321
O   11.833557   1.505809   36.738605
O   17.408392   3.701471   5.124935
C   18.113063   4.533852   5.132954
C   18.408795   5.109984   3.847665
O   17.900179   4.736046   2.943520
C   19.373244   6.203965   3.722986
C   20.057145   6.665501   4.925275
O   20.932220   7.392198   4.848808
C   19.701802   6.106615   6.165137
O   20.217780   6.469934   7.052562
C   18.673055   5.091234   6.292783
S   18.136934   4.583753   7.973953
O   20.767998   6.284540   11.866214
C   20.311112   6.548842   10.891323
C   19.759212   5.569543   10.037727
O   19.907416   4.485044   10.241518
C   18.927481   5.967095   8.907595
H   20.201925   8.942468   11.439479
C   18.662666   7.360029   8.656169
O   18.067746   7.613349   7.798999
C   19.352822   8.350063   9.418646
O   19.240873   9.364071   9.170995
C   20.028317   7.922491   10.610499
H   18.209141   4.717023   13.228875
H   21.852950   -1.162324   7.987787
C   19.575473   6.048466   39.586091
O   19.003884   8.015942   13.701034
C   20.034973   8.271717   13.836556
C   20.837877   8.651214   12.701051
H   24.382643   7.143329   17.971657
C   22.212313   8.814992   12.893746
O   22.827617   9.056639   12.011616
C   22.864768   8.725937   14.186548
O   23.911594   8.929663   14.349332
C   22.045112   8.450072   15.327403
O   22.498317   8.520800   16.355532
C   20.634715   8.129492   15.122981
S   19.975939   6.845033   16.319606
O   18.607469   7.600244   21.021991
C   19.029520   8.072899   20.168530
C   19.246133   7.250462   19.013465
O   19.093100   6.230516   19.082715
C   19.805190   7.817454   17.800598
H   19.056459   10.292705   21.255822
C   20.082262   9.216102   17.757295
O   20.415823   9.642357   16.803934
C   19.882224   10.021519   18.961769
O   20.027297   11.096091   18.943208
C   19.291060   9.512698   20.159200
H   15.848219   -0.952071   31.124667
O   17.713079   8.819103   25.385670
C   18.514277   8.818692   24.625534
C   18.398348   9.733201   23.514759
O   17.549347   10.410260   23.554833
C   19.342222   9.664362   22.412453
H   14.479095   2.660610   44.175049
C   20.498943   8.793630   22.578769
O   21.264031   8.776715   21.901197
C   20.592418   7.911021   23.687129
O   21.493798   7.314488   23.773742
C   19.593507   7.896158   24.690113
S   19.531180   6.357499   25.767891
O   20.331467   6.147037   30.728448
C   20.131349   6.795199   29.861600
C   19.776543   6.269643   28.556193
O   19.585143   5.219788   28.431378
C   19.620138   7.112266   27.434790
H   21.086476   8.698547   31.077177
C   19.772072   8.533072   27.648787
O   19.536829   9.251853   26.879340
C   20.198668   9.082871   28.903855
O   20.391582   10.125999   29.052452
C   20.477483   8.156149   29.976372
H   14.541149   2.436275   17.562857
H   22.771596   -1.056206   27.705343
O   19.493533   6.543274   32.317901
C   20.223185   7.137565   32.865281
C   21.269571   8.001003   32.219894
H   15.277320   -1.105828   34.606015
C   22.379582   8.350331   33.078186
O   23.210565   8.939928   32.632422
C   22.389746   8.143298   34.458141
O   23.234545   8.458488   35.080798
C   21.300909   7.425706   35.071623
O   21.319140   7.328598   36.191264
C   20.268162   6.864380   34.253680
S   18.832354   5.934202   34.877172
O   17.378432   6.559582   39.596331
C   18.279890   6.266449   38.991821
C   18.191779   6.200368   37.535481
O   17.270900   6.595238   37.130411
C   19.245078   5.815401   36.665539
H   19.885963   6.554321   40.849691
C   20.479105   5.506929   37.279764
O   21.342952   5.090792   36.667458
C   20.611959   5.620872   38.712620
O   21.572930   5.305431   39.107303
O   7.292255   5.895168   -0.986161
C   7.355641   5.299475   -1.926517
C   6.973059   5.885779   -3.205166
O   6.471027   6.836651   -3.152154
C   7.161144   5.120824   -4.387571
C   7.752029   3.826443   -4.249175
O   7.956948   3.318404   -5.179364
C   8.109466   3.279715   -2.951315
O   8.542329   2.291860   -2.915197
C   7.859860   3.972558   -1.720664
S   8.135522   3.111141   -0.087334
O   6.437947   3.167136   4.479433
C   6.796461   3.833345   3.643583
C   6.888412   3.315284   2.312117
O   6.693483   2.279971   2.119534
C   7.411292   4.160198   1.258041
H   6.889314   5.764299   5.054642
C   7.783576   5.519001   1.454185
O   8.175126   6.154508   0.612954
C   7.739844   6.028396   2.783986
O   7.978335   7.060264   2.996346
C   7.165289   5.206523   3.828727
H   4.140292   5.633147   0.229897
H   6.614090   2.818924   7.378615
C   6.312080   5.430570   31.758412
O   6.761731   6.442863   7.542700
C   7.751245   6.136742   7.234121
C   7.958450   5.709018   5.849746
H   6.874415   -1.746824   20.759399
C   9.292195   5.197511   5.584723
O   9.539189   4.904105   4.567027
C   10.278945   5.071080   6.575180
O   11.214595   4.695381   6.232274
C   10.104536   5.488440   7.961667
O   10.822497   5.381985   8.781958
C   8.792165   5.938797   8.212434
S   8.624638   6.840635   9.853034
O   8.274211   2.161080   11.512522
C   8.500928   3.192808   11.759232
C   8.746474   4.086370   10.703491
O   8.778200   3.805799   9.672619
C   8.928921   5.488126   11.030194
H   8.208054   2.587463   14.006380
C   9.083579   5.865218   12.421553
O   9.311716   6.928905   12.636214
C   8.839132   4.933411   13.474394
O   8.943277   5.217015   14.490443
C   8.503959   3.561605   13.151644
H   5.598729   8.473379   3.663312
O   7.818250   1.635153   18.527644
C   8.467837   1.992989   17.659695
C   7.851117   2.149786   16.393815
O   6.823548   1.805791   16.233415
C   8.635873   2.677042   15.271588
H   7.929042   9.907998   33.257545
C   10.006066   3.077724   15.518755
O   10.599017   3.321425   14.673839
C   10.584006   2.997987   16.826511
O   11.618798   3.265301   17.072152
C   9.812170   2.355233   17.857472
S   10.471412   2.013899   19.591685
O   7.404556   1.901233   23.555600
C   7.764059   2.446783   22.634192
C   8.889289   2.036260   21.846293
O   9.505474   1.206662   22.151781
C   9.066466   2.681774   20.571112
H   5.829137   3.940471   23.075041
C   8.248228   3.748228   20.132776
O   8.488228   4.283115   19.222263
C   7.136069   4.159128   20.985036
O   6.542426   5.069184   20.769637
C   6.925514   3.560546   22.254076
H   2.394221   10.554498   12.760270
H   7.668346   -0.778121   25.797394
O   4.076795   3.695158   25.139108
C   5.116844   3.895904   25.418648
C   6.110871   4.125384   24.346254
H   9.210030   3.660877   29.772935
C   7.465972   4.439931   24.798791
O   8.229996   4.751173   24.098182
C   7.865242   4.370840   26.147911
O   8.960426   4.576439   26.406189
C   6.880406   4.027538   27.129251
O   7.184483   4.038599   28.163280
C   5.509750   3.809297   26.776676
S   4.274528   3.327737   28.075467
O   5.398944   3.731944   32.828924
C   5.467859   4.271677   31.883197
C   4.833058   3.699613   30.748337
O   4.297286   2.758237   30.877760
C   4.927395   4.334572   29.488174
H   7.181128   5.813833   32.687466
C   5.701687   5.520618   29.379600
O   5.800373   5.993077   28.402261
C   6.413373   6.072824   30.463447
O   7.132526   6.929311   30.248081
O   12.015459   6.745603   5.190160
C   12.988925   7.130797   4.993780
C   13.365910   7.385251   3.618745
O   12.653996   7.245480   2.796691
C   14.668145   7.872701   3.356325
C   15.654896   8.004715   4.382409
O   16.696384   8.349140   4.173157
C   15.274725   7.813478   5.741904
O   16.012562   7.908751   6.528935
C   13.970748   7.267467   6.035203
S   13.907060   6.020068   7.432705
O   16.496070   7.004992   11.564281
C   15.944691   7.399316   10.771011
C   15.384344   6.537666   9.750035
O   15.612743   5.432477   9.706925
C   14.595833   7.124247   8.690107
H   16.438328   9.633483   11.522290
C   14.416235   8.561640   8.613580
O   13.875731   9.037115   7.761723
C   14.893190   9.380871   9.663042
O   14.737798   10.380183   9.602197
C   15.741733   8.804719   10.689596
H   12.363003   5.814025   11.712768
H   18.478962   3.629535   13.615357
C   14.815551   6.949702   39.513759
O   14.825435   8.160579   13.182827
C   15.686842   8.606038   13.655649
C   16.642939   9.283763   12.794671
H   16.478630   -1.135056   30.088894
C   17.808838   9.904328   13.447526
O   18.523575   10.390776   12.823282
C   17.881609   9.963212   14.854297
O   18.717912   10.517733   15.263832
C   16.956235   9.230216   15.688501
O   17.067006   9.175798   16.754134
C   15.862565   8.529572   15.056960
S   14.833322   7.327159   15.947722
O   16.430225   4.584070   19.793313
C   16.156870   5.596815   19.482603
C   16.024064   5.913148   18.089231
O   16.110049   5.157713   17.284628
C   15.634145   7.222833   17.625263
H   16.477815   6.361808   21.739451
C   15.525977   8.257499   18.587244
O   15.261583   9.295605   18.233891
C   15.719695   7.967940   19.987810
O   15.541284   8.782302   20.701720
C   16.069464   6.661611   20.437743
H   7.874200   -2.843203   17.447554
O   12.185745   5.460086   22.937206
C   13.188779   5.716661   23.234970
C   14.184785   5.697583   22.212892
O   13.963299   5.438235   21.194930
C   15.556293   5.940938   22.574816
H   11.365241   4.483699   39.217613
C   15.972172   5.969630   23.989282
O   16.991396   6.066383   24.282134
C   14.967358   5.853765   24.950424
O   15.245584   5.796679   26.026390
C   13.567246   5.696902   24.610922
S   12.293240   5.501351   25.870105
O   13.785147   2.238027   29.109261
C   13.611756   3.303301   29.007766
C   13.765494   3.884587   27.697695
O   14.063561   3.111936   26.953388
C   13.390462   5.212156   27.404169
H   13.104045   3.563178   31.266452
C   13.168065   6.083949   28.487494
O   13.006438   7.140730   28.370055
C   13.212251   5.606207   29.840688
O   13.003338   6.314706   30.709924
C   13.353626   4.206309   30.107671
H   14.342464   0.896588   26.366885
H   14.385406   2.349861   18.770984
O   12.234099   3.369113   33.886148
C   13.237304   3.757858   33.776702
C   13.740687   3.929402   32.410496
H   14.179496   3.079078   43.089163
C   15.041884   4.492203   32.349130
O   15.465133   4.716754   31.397264
C   15.851870   4.791403   33.492564
O   16.872847   5.200851   33.338992
C   15.366670   4.509286   34.810247
O   15.997898   4.618118   35.722095
C   14.013340   4.094504   34.958894
S   13.587717   3.436038   36.610929
O   14.916910   5.285095   41.033629
C   14.686608   5.559809   39.957419
C   14.316324   4.563206   39.059973
O   14.140095   3.536367   39.420272
C   14.118155   4.837623   37.685885
H   15.009110   8.018991   40.280197
C   14.233992   6.176500   37.149684
O   14.032019   6.445512   36.110963
C   14.587568   7.203521   38.110203
O   14.775581   8.242018   37.803361
O   16.952368   11.566842   0.820004
C   17.839330   11.058300   0.447428
C   18.263095   10.912589   -0.879067
O   17.618320   11.221596   -1.694935
C   19.454953   10.124163   -1.050912
C   20.251708   9.690911   -0.002446
O   21.137900   9.089552   -0.106493
C   19.781508   9.916789   1.372293
O   20.310588   9.426421   2.192138
C   18.554332   10.533905   1.653065
S   17.767557   10.844762   3.262360
O   20.082975   11.166962   7.669096
C   20.190787   11.420920   6.583087
C   19.302647   10.696755   5.675995
O   18.665725   9.954649   6.069616
C   19.249811   11.100791   4.300148
H   21.579434   13.377325   7.047947
C   20.236355   12.095549   3.837989
O   20.264087   12.339054   2.801567
C   21.145237   12.710045   4.765610
O   21.844271   13.460607   4.347763
C   21.069089   12.430874   6.183714
H   22.789634   8.332445   7.204418
H   22.104229   2.831258   0.981640
C   19.452380   10.435688   34.892292
O   22.088257   15.097084   9.034343
C   22.329455   14.064969   9.281494
C   21.967529   13.050476   8.272369
H   24.112281   7.299619   22.281672
C   22.333801   11.660218   8.568716
O   22.275999   10.885862   7.822474
C   22.840956   11.317142   9.874881
O   23.232391   10.328303   10.051769
C   23.093078   12.324104   10.846333
O   23.517980   12.111548   11.861949
C   22.778391   13.688832   10.565262
S   23.258490   14.948510   11.828944
O   24.030108   14.323517   16.739791
C   23.410517   13.912968   15.910242
C   23.753773   14.469225   14.636062
O   24.476290   15.305774   14.585313
C   23.103126   14.061110   13.439680
H   22.359756   12.040849   17.188808
C   22.110719   13.057884   13.590274
O   21.497193   12.790872   12.641536
C   21.890007   12.387373   14.849596
O   21.110792   11.591864   14.780199
C   22.475630   12.835944   16.078844
H   25.493799   16.951013   18.387277
O   21.883911   11.510159   21.668197
C   21.894175   12.176608   20.821001
C   22.237936   11.701540   19.504049
O   22.454676   10.667294   19.375586
C   22.256152   12.659567   18.371458
H   15.448574   9.362484   33.977056
C   21.901358   14.040023   18.546888
O   21.764627   14.701936   17.738742
C   21.430320   14.416012   19.836962
O   20.983467   15.390197   20.017419
C   21.431747   13.538557   20.945956
S   20.253315   14.011064   22.335293
O   20.728478   11.860336   26.765808
C   21.168886   12.458534   25.992593
C   20.463339   12.601099   24.781699
O   19.462977   12.221160   24.604276
C   21.187815   13.204929   23.714006
H   23.229356   13.100762   27.392746
C   22.532241   13.676582   23.882856
O   23.107239   14.172532   23.046601
C   23.071843   13.782375   25.188661
O   24.060618   14.186809   25.319801
C   22.459747   13.100779   26.296637
H   22.649938   7.669607   26.733666
H   23.210584   13.766530   33.549358
O   20.845689   13.383611   28.693557
C   21.608756   12.872159   29.228888
C   22.906424   12.676112   28.627848
H   20.125324   12.756024   30.982248
C   23.901783   11.929625   29.389543
O   24.934152   11.788249   29.131398
C   23.595262   11.457777   30.709120
O   24.380270   10.925216   31.267513
C   22.356083   11.700336   31.339159
O   22.174167   11.514552   32.430602
C   21.374571   12.499813   30.577981
S   18.651574   13.112007   31.190164
O   20.231264   12.340370   35.763713
C   19.963500   11.816432   34.893740
C   20.018255   12.573099   33.701698
O   20.433520   13.603085   33.676730
C   19.574395   11.971310   32.422693
H   19.555990   9.634357   35.953520
C   19.008242   10.575661   32.448369
O   18.627978   10.157820   31.516979
C   18.869857   9.873677   33.671036
O   18.349428   8.913423   33.709827
