528
Lattice="20.832945 0.0  0.0  0.000000 8.680394  0.0  0.000000 0.000000 35.138234"
H   1.728007   2.890518   3.489312
C   2.769545   2.747846   3.697140
C   3.695697   2.401392   2.666473
H   3.253711   2.130756   1.752873
C   5.137611   2.421549   2.924172
C   5.603301   2.667976   4.268832
H   6.653525   2.678255   4.457670
C   4.657559   2.910475   5.290140
H   5.083464   3.169740   6.277562
C   3.263707   3.121872   5.010684
S   2.031768   3.415159   6.315952
H   4.720874   1.422431   10.070936
C   4.350528   2.314123   9.580164
C   3.569466   2.189033   8.369799
H   3.374185   1.176104   8.039722
C   3.138507   3.420819   7.775402
O   5.773139   3.663619   10.961298
C   3.474567   4.710905   8.242860
H   3.166459   5.630092   7.757578
C   4.299044   4.837167   9.407814
H   4.585727   5.826130   9.822967
C   4.755712   3.605462   10.064234
C   5.608790   2.461566   35.718183
H   3.576330   2.430230   12.021198
C   4.516332   2.155660   12.454451
C   5.776165   2.651944   11.943854
C   7.020786   2.428082   12.647279
H   7.943577   2.921182   12.351360
C   7.003188   1.611256   13.837488
H   7.919759   1.422440   14.393174
C   5.782115   1.085365   14.359583
H   5.748487   0.519759   15.280109
C   4.574163   1.489072   13.716092
S   2.920457   0.932901   14.340462
H   3.612228   -1.333174   18.763647
C   3.491236   -0.387616   18.238840
C   3.668858   -0.303779   16.840222
H   3.907754   -1.205170   16.269478
C   3.453978   0.896473   16.106848
O   2.810283   0.820944   20.219345
C   3.234287   2.114515   16.861185
H   3.076328   3.066441   16.267267
C   3.252495   2.153370   18.225483
H   3.208602   3.061137   18.828299
C   3.237677   0.848231   18.961291
H   -0.111100   3.786638   22.205999
C   0.959042   3.573667   22.016533
C   1.250101   2.371756   21.327099
H   0.397024   1.802715   20.885551
C   2.605923   1.912606   21.032008
C   3.641198   2.794142   21.539519
H   4.701056   2.445422   21.423680
C   3.310079   3.893624   22.398497
H   4.109575   4.523209   22.803969
C   1.979576   4.328489   22.663985
S   1.538943   5.461132   24.056126
H   5.044240   3.193837   26.792129
C   4.725336   4.151502   26.345090
C   3.760323   4.101235   25.296277
H   3.482826   3.099104   24.881108
C   3.194230   5.344359   24.891780
O   6.383508   5.409029   27.644773
C   3.706627   6.561327   25.375663
H   3.338692   7.489003   24.942947
C   4.826619   6.606492   26.244362
H   5.177343   7.583083   26.602355
C   5.339763   5.365812   26.829871
H   4.342102   4.112718   28.877313
C   5.367427   3.812050   29.220195
C   6.501385   4.406663   28.571380
C   7.852884   4.012226   29.010207
H   8.704701   4.517657   28.470467
C   8.075371   3.112512   30.043963
H   9.113403   2.886540   30.363849
C   6.907581   2.544911   30.693233
H   7.103629   1.909087   31.551110
C   5.607386   2.838176   30.247425
S   4.277401   2.063842   31.293075
H   6.950890   0.703166   35.469017
C   6.222154   1.440459   34.963896
C   5.821443   1.344952   33.577993
H   6.117951   0.538119   32.958209
C   4.944672   2.270535   32.955440
O   5.995969   2.419186   37.084871
C   4.466906   3.338244   33.780010
H   3.856888   4.106142   33.343792
C   4.710104   3.452925   35.194930
H   4.210922   4.242155   35.831717
H   8.748223   2.495965   3.114737
C   9.799227   2.653484   3.384387
C   10.732885   2.312206   2.325512
H   10.402216   1.917201   1.378094
C   12.131929   2.455141   2.641711
C   12.590747   2.812150   3.954372
H   13.654846   2.919792   4.253926
C   11.678054   3.089667   5.006959
H   12.052240   3.325170   5.995065
C   10.274999   2.990081   4.718481
S   8.923142   3.225195   5.859048
H   11.076267   1.947538   10.329931
C   10.755262   2.786100   9.738381
C   9.977373   2.463397   8.594208
H   9.753668   1.399770   8.374871
C   9.624612   3.495088   7.606065
O   12.403311   4.376524   10.644663
C   9.960325   4.859810   7.893919
H   9.530644   5.705469   7.258054
C   10.766927   5.130958   9.028949
H   11.014489   6.226741   9.181809
C   11.286290   4.107906   9.924260
C   12.850362   2.209660   35.642480
H   10.714235   3.027950   12.332887
C   11.792396   2.958273   12.615769
C   12.748161   3.607046   11.690901
C   14.157454   3.435287   12.005967
H   14.923000   3.976494   11.388807
C   14.589644   2.613769   13.079340
H   15.635090   2.491440   13.325692
C   13.635765   1.991690   13.953706
H   14.004004   1.408595   14.788711
C   12.241510   2.065541   13.653868
S   11.095992   0.670280   13.845966
H   9.601743   -1.374365   18.056609
C   9.797189   -0.386825   17.631411
C   10.097990   -0.349613   16.239612
H   10.017847   -1.332845   15.690597
C   10.528642   0.855778   15.600431
O   9.781085   0.642197   19.793026
C   10.397752   2.059896   16.379236
H   10.523907   3.037957   15.879718
C   10.143780   2.036214   17.782999
H   10.137164   2.972642   18.343626
C   9.887586   0.789670   18.472020
H   7.024683   3.681026   21.961731
C   8.017456   3.292028   21.788038
C   8.246039   2.180208   20.896346
H   7.384290   1.661187   20.444829
C   9.574166   1.751370   20.596015
C   10.682066   2.431467   21.190538
H   11.695145   2.058082   21.052207
C   10.453706   3.544958   22.052859
H   11.270356   4.056507   22.541510
C   9.130051   3.983159   22.344024
S   8.761903   5.388905   23.500661
H   12.074829   3.376524   26.540476
C   11.753937   4.303628   26.137237
C   10.899312   4.243518   25.028039
H   10.578422   3.251869   24.600747
C   10.343036   5.453167   24.463798
O   13.228270   5.672312   27.577509
C   10.770970   6.701939   25.020428
H   10.399961   7.658902   24.637646
C   11.638272   6.766409   26.123403
H   11.856084   7.726511   26.570769
C   12.188089   5.574729   26.734578
H   11.340537   4.187303   28.853592
C   12.363648   4.048347   29.154059
C   13.479475   4.624269   28.410486
C   14.847566   4.384577   28.814616
H   15.626444   4.750712   28.164792
C   15.179328   3.762949   30.076671
H   16.230549   3.677819   30.475871
C   14.093232   3.340016   30.916856
H   14.295706   2.852382   31.903299
C   12.760193   3.409436   30.381096
S   11.484592   2.474493   31.214495
H   13.930026   0.418329   35.174551
C   13.378953   1.250526   34.723405
C   13.173981   1.433008   33.312160
H   13.596364   0.657458   32.595704
C   12.319193   2.491495   32.912587
O   13.136695   2.059191   36.922942
C   11.703191   3.406477   33.818507
H   11.127968   4.225888   33.435264
C   11.969731   3.282887   35.195327
H   11.509310   3.973922   35.882205
H   15.899029   2.451597   3.261336
C   16.918205   2.427450   3.575740
C   17.916367   2.101983   2.607509
H   17.683125   1.762068   1.606552
C   19.299532   2.265693   3.032748
C   19.636854   2.610440   4.393734
H   20.655398   2.762209   4.687177
C   18.596132   2.826139   5.333497
H   18.887594   3.176549   6.342712
C   17.221996   2.800733   4.933260
S   15.817102   2.940236   6.003763
H   18.092535   1.867081   10.422263
C   17.792767   2.640083   9.721433
C   17.169650   2.224740   8.499925
H   16.956096   1.142745   8.326085
C   16.758717   3.252124   7.598621
O   18.793655   4.398701   10.987916
C   17.001316   4.658426   7.814035
H   16.753431   5.443386   7.059997
C   17.698470   5.047585   8.999254
H   17.915791   6.142767   9.104876
C   18.093246   4.033864   9.933918
C   19.891801   2.429112   35.981828
H   17.528113   3.025782   13.266351
C   18.569345   2.824256   12.968664
C   19.252276   3.365694   11.820804
C   20.561402   2.833155   11.489303
H   21.177535   3.195260   10.604441
C   21.189920   1.864911   12.287602
H   22.149515   1.448518   12.007287
C   20.451417   1.323878   13.409663
H   20.855930   0.603384   14.091041
C   19.079543   1.727137   13.704594
S   17.867798   0.475099   14.301565
H   16.814266   -1.255439   18.731562
C   17.164875   -0.378674   18.239967
C   17.591771   -0.377895   16.910051
H   17.515195   -1.321246   16.323951
C   17.938162   0.763174   16.121754
O   16.369376   1.002959   19.885806
C   18.038680   2.009648   16.821700
H   18.325193   2.895961   16.249647
C   17.740302   2.080028   18.222341
H   17.793861   3.016665   18.776461
C   17.255608   0.909453   18.921617
H   13.763952   3.868085   22.362344
C   14.742841   3.590703   22.079968
C   14.923669   2.458059   21.192757
H   14.084043   1.860289   20.844454
C   16.237086   2.158352   20.723538
C   17.363993   2.890939   21.128665
H   18.361847   2.644551   20.774445
C   17.183002   3.898607   22.165324
H   18.096054   4.436036   22.494171
C   15.891887   4.235431   22.654357
S   15.673520   5.609096   23.941784
H   19.267649   3.520056   26.602307
C   18.837209   4.469641   26.272546
C   17.904845   4.343135   25.217223
H   17.667167   3.371201   24.799889
C   17.240009   5.585329   24.839561
O   20.353510   5.776996   27.698073
C   17.653752   6.823773   25.371116
H   17.196109   7.721343   24.937790
C   18.639994   6.916384   26.386659
H   18.950192   7.912056   26.759726
C   19.286814   5.730723   26.893794
H   18.403401   4.479960   29.152704
C   19.439290   4.269432   29.398627
C   20.507350   4.749040   28.546971
C   21.889136   4.482475   28.926628
H   22.666644   4.879190   28.327194
C   22.153733   3.903405   30.182069
H   23.194143   3.836748   30.495839
C   21.104385   3.388805   31.033592
H   21.367800   2.854014   31.961331
C   19.743202   3.539548   30.612515
S   18.430479   2.853300   31.593698
H   21.267512   0.821935   35.333921
C   20.549797   1.537853   35.045012
C   20.180737   1.745125   33.678667
H   20.763783   1.163831   32.919622
C   19.249841   2.772902   33.323144
O   20.276267   2.193553   37.270047
C   18.597449   3.556695   34.277245
H   17.915710   4.319830   33.948614
C   18.905606   3.434659   35.662225
H   18.310317   4.051292   36.455027
H   5.267542   6.748149   2.948105
C   6.313357   6.713761   3.274717
C   7.276232   6.839564   2.221172
H   6.964416   6.791339   1.212871
C   8.631588   7.136021   2.573947
C   9.040930   7.259613   3.955376
H   10.014841   7.586928   4.204539
C   8.119945   7.016982   5.004558
H   8.439479   7.121849   5.996309
C   6.717031   6.873801   4.639040
S   5.441040   7.647619   5.611803
H   7.778790   5.971784   9.770662
C   7.392604   6.834888   9.215211
C   6.705462   6.678198   7.964856
H   6.575216   5.719671   7.545244
C   6.225002   7.853965   7.284555
O   8.514869   8.447383   10.622188
C   6.430578   9.158996   7.757974
H   5.989218   10.049973   7.235972
C   7.236579   9.333593   8.939796
H   7.469607   10.301515   9.365194
C   7.682972   8.186362   9.625548
C   9.429518   6.963903   35.508537
H   6.591248   7.332638   12.259853
C   7.690063   6.947353   12.427084
C   8.702127   7.350454   11.453619
C   10.010845   6.832686   11.728343
H   10.891970   7.120120   11.188792
C   10.339607   5.993620   12.831850
H   11.344567   5.615622   12.993938
C   9.341487   5.569670   13.720508
H   9.616123   4.903982   14.534203
C   7.998376   6.050674   13.481871
S   6.530733   5.081942   14.137349
H   6.416657   2.828178   18.488010
C   6.547247   3.837511   17.976887
C   6.690698   3.810572   16.576211
H   6.639767   2.901312   16.003524
C   6.848414   5.087820   15.912003
O   6.108457   4.975304   20.010449
C   7.033280   6.282173   16.693056
H   7.234904   7.194043   16.139483
C   6.742434   6.317263   18.101756
H   6.747490   7.307191   18.610545
C   6.518133   5.073454   18.779514
H   3.451291   7.941376   22.630153
C   4.467916   7.657532   22.185149
C   4.543911   6.517055   21.306312
H   3.660820   5.930120   21.096934
C   5.804134   6.174260   20.758061
C   6.928428   7.011612   21.030177
H   7.892637   6.633211   20.630192
C   6.902501   8.062592   21.981574
H   7.829213   8.594994   22.239313
C   5.604175   8.388675   22.530932
S   5.365070   9.845652   23.696135
H   9.162826   7.963045   26.214959
C   8.637383   8.852017   25.926697
C   7.689311   8.685573   24.872175
H   7.410701   7.760389   24.403595
C   6.954367   9.873159   24.509610
O   9.958796   10.249473   27.423189
C   7.267671   11.145790   25.123624
H   6.662848   12.018250   24.739531
C   8.324455   11.319943   26.047553
H   8.506292   12.298333   26.440774
C   8.965292   10.115387   26.567079
H   8.372485   8.168928   28.582167
C   9.430775   8.197564   28.753777
C   10.360251   9.138470   28.163878
C   11.696372   9.096550   28.595725
H   12.394723   9.817879   28.201568
C   12.174547   8.122841   29.592768
H   13.215920   8.068018   29.871848
C   11.237853   7.194325   30.154196
H   11.533898   6.394727   30.873509
C   9.850243   7.270602   29.765659
S   8.520678   6.571257   30.851124
H   8.461710   4.996668   35.573690
C   8.798571   5.807614   34.918367
C   8.637936   5.670725   33.515695
H   8.124838   4.752338   33.080976
C   9.102325   6.641788   32.607505
O   9.585908   7.358101   36.756584
C   9.918870   7.703518   33.192014
H   10.382711   8.414142   32.533086
C   10.026428   7.922910   34.574120
H   10.670370   8.735138   34.978718
H   12.156181   7.297059   3.361071
C   13.225293   7.248295   3.506114
C   14.118873   6.741501   2.493444
H   13.707455   6.643840   1.503896
C   15.496170   6.505981   2.793778
C   15.884887   6.705071   4.202652
H   16.900328   6.494194   4.506825
C   15.058553   7.268300   5.190011
H   15.410847   7.479830   6.191393
C   13.708088   7.548862   4.841752
S   12.447063   8.143797   6.041197
H   15.164758   6.207100   9.712009
C   14.712748   7.115365   9.276058
C   13.917382   6.949619   8.109591
H   13.735688   5.936429   7.742605
C   13.589916   8.187604   7.466879
O   16.180711   8.383950   10.664374
C   13.823093   9.499408   8.061962
H   13.411336   10.379128   7.588333
C   14.605473   9.619282   9.235833
H   14.769850   10.601767   9.687526
C   15.145875   8.393134   9.772528
C   16.047352   6.439521   35.644373
H   13.927277   7.463145   12.012210
C   14.906396   7.159997   12.356058
C   16.141977   7.579973   11.713738
C   17.457698   7.149805   12.229407
H   18.405403   7.427132   11.681389
C   17.530844   6.253942   13.328346
H   18.488688   5.808978   13.568849
C   16.328191   5.863748   13.990230
H   16.356975   5.187925   14.832056
C   15.039357   6.322657   13.501278
S   13.615533   5.556906   14.354085
H   13.960832   3.222584   18.673483
C   13.919594   4.196663   18.190091
C   14.223317   4.382187   16.803586
H   14.562194   3.573940   16.152372
C   14.066563   5.629082   16.143160
O   12.914969   5.178147   20.109430
C   13.752366   6.793290   16.941115
H   13.598499   7.801333   16.534050
C   13.620903   6.673461   18.364100
H   13.473162   7.635005   18.947570
C   13.573395   5.362026   18.955429
H   10.268116   8.342585   22.111897
C   11.271603   7.906520   22.016153
C   11.466444   6.756749   21.210503
H   10.574484   6.309523   20.739733
C   12.783012   6.181369   21.008069
C   13.867978   6.763935   21.750831
H   14.878432   6.340325   21.661806
C   13.652301   7.928233   22.547096
H   14.558256   8.391024   22.993638
C   12.340751   8.501849   22.764539
S   12.100413   9.942019   23.792119
H   15.518108   7.881577   26.987235
C   15.183041   8.764949   26.454083
C   14.311268   8.705424   25.329373
H   13.936504   7.741270   24.996116
C   13.702016   9.919096   24.824161
O   16.976994   10.112531   27.445547
C   14.077993   11.195832   25.304426
H   13.593988   12.106974   24.919186
C   15.336214   11.228792   26.039613
H   15.745562   12.199961   26.187173
C   15.868575   10.028982   26.654720
H   15.093782   8.940979   29.187248
C   16.134539   8.593482   29.266990
C   17.174532   9.284811   28.478687
C   18.553280   9.041002   28.864692
H   19.332303   9.625004   28.351096
C   18.925223   8.030503   29.759808
H   19.963231   7.821786   29.916044
C   17.921335   7.318367   30.530929
H   18.158783   6.618179   31.332743
C   16.564493   7.618629   30.222575
S   15.176296   6.673301   31.092298
H   14.632354   4.784268   35.667659
C   15.208311   5.469878   35.014884
C   15.023831   5.456794   33.596760
H   14.331451   4.807072   33.092971
C   15.720497   6.387603   32.765664
O   16.418565   6.396224   36.974555
C   16.663579   7.269400   33.427031
H   17.213633   7.974934   32.802080
C   16.763114   7.393804   34.824312
H   17.386745   8.194952   35.262435
H   19.150967   6.768788   3.138789
C   20.200410   6.842064   3.307749
C   21.120683   6.959475   2.223288
H   20.785482   6.980340   1.134114
C   22.486588   7.158772   2.615674
C   22.954654   7.289050   3.977880
H   23.992071   7.450753   4.207021
C   22.001056   7.208678   5.037450
H   22.328082   7.213560   6.070326
C   20.661901   6.946665   4.674354
S   19.338281   6.907274   5.946897
H   21.890621   5.649088   10.099625
C   21.578712   6.413755   9.442863
C   20.674870   6.155732   8.319219
H   20.341595   5.137495   8.168947
C   20.346376   7.218441   7.459881
O   22.693927   8.058445   10.825034
C   20.883878   8.555664   7.688402
H   20.616264   9.373902   6.976615
C   21.655520   8.812323   8.827806
H   22.053293   9.792118   8.989978
C   22.018235   7.728304   9.730035
C   23.324801   6.972459   35.565347
H   20.933115   6.437025   12.377336
C   21.973376   6.444433   12.623825
C   22.944350   7.206989   11.907304
C   24.349189   7.154157   12.314175
H   25.104947   7.687605   11.744042
C   24.697990   6.461793   13.486688
H   25.684753   6.527039   13.882433
C   23.698634   5.813409   14.311922
H   23.921447   5.308555   15.287164
C   22.357744   5.725767   13.783876
S   21.164743   4.523123   14.407327
H   20.139213   2.514932   18.485127
C   20.585570   3.464744   18.161180
C   21.181458   3.443915   16.845544
H   21.266547   2.432893   16.346807
C   21.619960   4.635382   16.200626
O   19.505900   4.822197   19.769486
C   21.647577   5.837323   17.010237
H   22.134537   6.728929   16.608207
C   21.168787   5.826687   18.307487
H   21.238235   6.768584   18.821549
C   20.446865   4.690248   18.876100
H   17.086185   8.154446   22.042147
C   18.053744   7.671030   21.847953
C   18.121270   6.479046   21.047654
H   17.211862   5.954873   20.714990
C   19.391516   5.986336   20.588870
C   20.566912   6.603080   21.117222
H   21.583032   6.231393   20.877625
C   20.469726   7.718143   22.028859
H   21.429022   8.127849   22.454760
C   19.221125   8.286350   22.381735
S   19.030183   9.693488   23.546148
H   22.638815   7.594320   26.401846
C   22.255508   8.597639   26.140942
C   21.191080   8.486049   25.168815
H   20.892286   7.528661   24.778807
C   20.540394   9.649568   24.700601
O   23.722381   9.900330   27.533487
C   20.961932   10.896020   25.222482
H   20.365363   11.809009   24.934768
C   22.082385   11.039518   26.083424
H   22.355767   11.991152   26.487117
C   22.725736   9.859482   26.635688
H   21.960312   8.003673   28.736812
C   23.026004   7.916277   28.914857
C   23.997701   8.771372   28.267305
C   25.379572   8.540513   28.664381
H   26.118174   9.166471   28.152957
C   25.815789   7.594976   29.616966
H   26.883485   7.489300   29.842909
C   24.821451   6.800879   30.278309
H   25.141159   6.038875   31.056268
C   23.460572   7.028934   29.974480
S   22.139853   6.676221   31.191952
H   22.254325   5.044299   35.860792
C   22.639100   5.753282   35.096017
C   22.466753   5.494386   33.719927
H   21.986571   4.606074   33.306793
C   23.023403   6.441081   32.787244
O   23.467653   7.325159   36.852256
C   23.826458   7.548618   33.179110
H   24.387760   8.114047   32.418238
C   23.934013   7.825052   34.584424
H   24.550508   8.676823   34.875238
