576
Lattice="26.506727 0.0  0.0  0.000000 11.044470  0.0  0.000000 0.000000 44.708013"
H   0.210533   3.211926   -0.099656
C   1.241974   2.907728   -0.414104
C   1.765309   3.289671   -1.721514
H   1.105876   3.895174   -2.381447
C   3.049161   2.979148   -2.221540
C   3.814683   2.245364   -1.281601
H   4.852613   2.024574   -1.604776
C   3.381285   1.800891   0.032211
H   4.087173   1.250080   0.706277
C   2.070229   2.153730   0.430326
S   1.207883   1.207668   2.070465
H   1.676444   1.093658   7.346000
C   1.815005   1.707810   6.429419
C   1.473609   1.135275   5.132009
H   1.086782   0.087904   5.068979
C   1.677931   1.937366   3.987692
O   2.611357   3.566433   7.909053
C   2.143181   3.260531   4.065866
H   2.279005   3.924208   3.171090
C   2.439976   3.739062   5.410898
H   2.809750   4.781258   5.529807
C   2.329309   3.000080   6.609953
O   -1.266008   1.292344   1.778749
O   2.077228   -1.135104   2.092733
C   2.946023   3.041629   39.933188
H   1.520944   2.752683   10.334786
C   2.609102   2.567893   10.250400
C   3.230893   2.913275   8.978390
O   2.550329   -1.188315   13.055090
C   4.615268   2.604687   9.142156
H   5.238025   2.838664   8.247976
C   5.344442   2.035904   10.229614
H   6.440549   1.859540   10.160745
C   4.610689   1.717531   11.432168
H   5.130852   1.274092   12.310840
C   3.242733   2.012142   11.387185
S   2.185029   1.300026   13.050503
H   2.138538   1.073921   18.311083
C   2.480349   1.678688   17.444356
C   2.275862   1.152730   16.106455
H   1.777667   0.155007   15.979827
C   2.686129   1.926829   14.994525
O   3.356398   3.397217   19.032930
C   3.302387   3.183124   15.171407
H   3.629429   3.831020   14.321514
C   3.471685   3.618413   16.542585
H   3.950554   4.607526   16.703634
C   3.093744   2.921332   17.727184
O   -0.228350   1.848883   12.723026
H   -0.392860   3.442199   21.961734
C   0.661575   3.103317   21.800574
C   1.352296   3.373784   20.542475
H   0.807722   3.924757   19.746828
C   2.683955   3.017986   20.247047
O   -1.186325   2.797123   35.100710
C   3.312535   2.350434   21.324055
H   4.377187   2.082820   21.155352
C   2.711088   2.018717   22.609486
H   3.308073   1.501324   23.403387
C   1.373742   2.416211   22.796164
S   0.340954   1.683303   24.468810
H   0.811321   1.661130   29.733516
C   0.969699   2.259398   28.808103
C   0.655642   1.658321   27.515349
H   0.267415   0.610731   27.469968
C   0.883014   2.425135   26.353383
O   1.762758   4.123630   30.277842
C   1.374490   3.742315   26.421503
H   1.557677   4.385485   25.520896
C   1.645911   4.252126   27.759696
H   2.037337   5.289026   27.862679
C   1.500255   3.546987   28.976367
O   -2.053740   2.204728   24.127699
O   0.905538   -0.733034   24.456870
H   0.529908   3.242566   32.640138
C   1.618636   3.056127   32.588972
C   2.320076   3.456173   31.377199
O   0.944724   -0.710922   35.398149
C   3.688187   3.132618   31.590515
H   4.356626   3.419907   30.748203
C   4.339914   2.482059   32.680319
H   5.435219   2.286445   32.651551
C   3.533209   2.084412   33.815651
H   4.003562   1.573978   34.686233
C   2.180273   2.422527   33.730901
S   1.085878   1.793926   35.408533
H   2.072438   1.161696   40.559073
C   2.231483   1.845667   39.692982
C   1.703819   1.440326   38.401530
H   1.153403   0.460927   38.322181
C   1.886367   2.270682   37.267965
O   3.510697   3.387922   41.191251
C   2.568997   3.496959   37.413674
H   2.727535   4.205059   36.561072
C   3.066114   3.806914   38.741392
H   3.619068   4.770958   38.843736
H   9.046108   3.211926   -0.099656
C   10.077549   2.907728   -0.414104
C   10.600885   3.289671   -1.721514
H   9.941452   3.895174   -2.381447
C   11.884737   2.979148   -2.221540
C   12.650258   2.245364   -1.281601
H   13.688189   2.024574   -1.604776
C   12.216860   1.800891   0.032211
H   12.922749   1.250080   0.706277
C   10.905804   2.153730   0.430326
S   10.043459   1.207668   2.070465
H   10.512020   1.093659   7.345999
C   10.650581   1.707810   6.429419
C   10.309185   1.135275   5.132009
H   9.922358   0.087904   5.068979
C   10.513506   1.937366   3.987692
O   11.446933   3.566433   7.909053
C   10.978757   3.260531   4.065866
H   11.114580   3.924208   3.171090
C   11.275552   3.739062   5.410898
H   11.645326   4.781258   5.529807
C   11.164884   3.000080   6.609953
O   7.569568   1.292344   1.778749
O   10.912803   -1.135104   2.092733
C   11.781598   3.041629   39.933188
H   10.356519   2.752683   10.334786
C   11.444678   2.567893   10.250400
C   12.066468   2.913275   8.978390
O   11.385904   -1.188315   13.055090
C   13.450844   2.604687   9.142156
H   14.073601   2.838664   8.247976
C   14.180018   2.035904   10.229614
H   15.276125   1.859540   10.160745
C   13.446265   1.717531   11.432168
H   13.966428   1.274092   12.310840
C   12.078309   2.012142   11.387185
S   11.020605   1.300026   13.050503
H   10.974114   1.073921   18.311083
C   11.315925   1.678688   17.444356
C   11.111438   1.152730   16.106455
H   10.613243   0.155007   15.979827
C   11.521705   1.926829   14.994525
O   12.191974   3.397217   19.032930
C   12.137963   3.183124   15.171407
H   12.465005   3.831020   14.321514
C   12.307261   3.618413   16.542585
H   12.786130   4.607526   16.703634
C   11.929320   2.921332   17.727184
O   8.607226   1.848883   12.723026
H   8.442715   3.442199   21.961734
C   9.497151   3.103317   21.800574
C   10.187872   3.373784   20.542475
H   9.643298   3.924757   19.746828
C   11.519531   3.017986   20.247047
O   7.649250   2.797123   35.100710
C   12.148111   2.350434   21.324055
H   13.212763   2.082820   21.155352
C   11.546664   2.018717   22.609486
H   12.143648   1.501324   23.403387
C   10.209317   2.416211   22.796164
S   9.176529   1.683303   24.468810
H   9.646897   1.661130   29.733516
C   9.805275   2.259398   28.808103
C   9.491218   1.658321   27.515349
H   9.102990   0.610731   27.469968
C   9.718590   2.425135   26.353383
O   10.598334   4.123630   30.277842
C   10.210066   3.742315   26.421503
H   10.393252   4.385485   25.520896
C   10.481487   4.252126   27.759696
H   10.872913   5.289026   27.862679
C   10.335831   3.546987   28.976367
O   6.781835   2.204728   24.127699
O   9.741114   -0.733034   24.456870
H   9.365483   3.242566   32.640138
C   10.454211   3.056127   32.588972
C   11.155652   3.456173   31.377199
O   9.780300   -0.710922   35.398149
C   12.523762   3.132618   31.590515
H   13.192202   3.419907   30.748203
C   13.175490   2.482059   32.680319
H   14.270795   2.286445   32.651551
C   12.368785   2.084412   33.815651
H   12.839138   1.573978   34.686233
C   11.015849   2.422527   33.730901
S   9.921453   1.793926   35.408533
H   10.908013   1.161696   40.559073
C   11.067059   1.845667   39.692982
C   10.539395   1.440326   38.401530
H   9.988979   0.460927   38.322181
C   10.721943   2.270682   37.267965
O   12.346273   3.387922   41.191251
C   11.404573   3.496959   37.413674
H   11.563111   4.205059   36.561072
C   11.901690   3.806914   38.741392
H   12.454644   4.770958   38.843736
H   17.881684   3.211926   -0.099656
C   18.913125   2.907728   -0.414104
C   19.436461   3.289671   -1.721514
H   18.777028   3.895174   -2.381447
C   20.720312   2.979148   -2.221540
C   21.485834   2.245364   -1.281601
H   22.523765   2.024574   -1.604776
C   21.052436   1.800892   0.032211
H   21.758325   1.250080   0.706277
C   19.741380   2.153730   0.430326
S   18.879034   1.207668   2.070465
H   19.347595   1.093659   7.345999
C   19.486157   1.707810   6.429419
C   19.144761   1.135275   5.132009
H   18.757934   0.087904   5.068979
C   19.349082   1.937366   3.987692
O   20.282509   3.566433   7.909053
C   19.814333   3.260531   4.065866
H   19.950156   3.924208   3.171090
C   20.111127   3.739062   5.410898
H   20.480901   4.781258   5.529807
C   20.000460   3.000080   6.609953
O   16.405143   1.292344   1.778749
O   19.748379   -1.135104   2.092733
C   20.617174   3.041629   39.933188
H   19.192095   2.752683   10.334786
C   20.280254   2.567893   10.250400
C   20.902044   2.913275   8.978390
O   20.221480   -1.188315   13.055090
C   22.286420   2.604687   9.142156
H   22.909177   2.838664   8.247976
C   23.015594   2.035904   10.229614
H   24.111701   1.859540   10.160746
C   22.281840   1.717531   11.432168
H   22.802003   1.274092   12.310840
C   20.913884   2.012142   11.387185
S   19.856180   1.300026   13.050503
H   19.809690   1.073921   18.311083
C   20.151501   1.678688   17.444356
C   19.947014   1.152730   16.106455
H   19.448818   0.155007   15.979827
C   20.357280   1.926829   14.994525
O   21.027550   3.397217   19.032930
C   20.973539   3.183124   15.171407
H   21.300581   3.831020   14.321514
C   21.142836   3.618413   16.542585
H   21.621706   4.607526   16.703634
C   20.764895   2.921332   17.727184
O   17.442801   1.848883   12.723026
H   17.278291   3.442199   21.961734
C   18.332727   3.103317   21.800574
C   19.023448   3.373784   20.542475
H   18.478874   3.924757   19.746828
C   20.355107   3.017986   20.247047
O   16.484826   2.797123   35.100710
C   20.983687   2.350434   21.324055
H   22.048339   2.082820   21.155352
C   20.382240   2.018717   22.609486
H   20.979224   1.501324   23.403387
C   19.044893   2.416211   22.796164
S   18.012105   1.683303   24.468810
H   18.482472   1.661130   29.733516
C   18.640850   2.259398   28.808103
C   18.326793   1.658321   27.515349
H   17.938566   0.610731   27.469968
C   18.554166   2.425135   26.353383
O   19.433910   4.123630   30.277842
C   19.045641   3.742315   26.421503
H   19.228828   4.385485   25.520896
C   19.317062   4.252126   27.759696
H   19.708489   5.289026   27.862679
C   19.171407   3.546987   28.976367
O   15.617411   2.204728   24.127699
O   18.576690   -0.733034   24.456870
H   18.201059   3.242566   32.640138
C   19.289787   3.056127   32.588972
C   19.991228   3.456173   31.377199
O   18.615876   -0.710922   35.398149
C   21.359338   3.132618   31.590515
H   22.027778   3.419907   30.748203
C   22.011066   2.482059   32.680319
H   23.106371   2.286445   32.651551
C   21.204361   2.084412   33.815651
H   21.674713   1.573978   34.686233
C   19.851425   2.422527   33.730901
S   18.757029   1.793926   35.408533
H   19.743589   1.161696   40.559073
C   19.902635   1.845667   39.692982
C   19.374970   1.440326   38.401530
H   18.824555   0.460927   38.322181
C   19.557519   2.270682   37.267965
O   21.181849   3.387922   41.191251
C   20.240148   3.496959   37.413674
H   20.398687   4.205059   36.561072
C   20.737266   3.806914   38.741392
H   21.290220   4.770958   38.843736
H   4.628321   8.734161   -0.099656
C   5.659761   8.429963   -0.414104
C   6.183097   8.811906   -1.721514
H   5.523664   9.417409   -2.381447
C   7.466949   8.501383   -2.221540
C   8.232471   7.767599   -1.281601
H   9.270401   7.546809   -1.604776
C   7.799072   7.323126   0.032211
H   8.504961   6.772314   0.706277
C   6.488016   7.675965   0.430326
S   5.625671   6.729903   2.070465
H   6.094232   6.615893   7.345999
C   6.232793   7.230045   6.429419
C   5.891397   6.657510   5.132009
H   5.504570   5.610139   5.068979
C   6.095718   7.459601   3.987692
O   7.029145   9.088668   7.909053
C   6.560969   8.782766   4.065866
H   6.696792   9.446443   3.171090
C   6.857764   9.261297   5.410898
H   7.227538   10.303493   5.529807
C   6.747097   8.522315   6.609953
O   3.151780   6.814579   1.778749
O   6.495015   4.387131   2.092733
C   7.363810   8.563864   39.933188
H   5.938731   8.274918   10.334786
C   7.026890   8.090128   10.250400
C   7.648681   8.435510   8.978390
O   6.968117   4.333920   13.055090
C   9.033056   8.126922   9.142156
H   9.655813   8.360899   8.247976
C   9.762230   7.558139   10.229614
H   10.858337   7.381774   10.160745
C   9.028477   7.239766   11.432168
H   9.548640   6.796327   12.310840
C   7.660521   7.534377   11.387185
S   6.602817   6.822261   13.050503
H   6.556326   6.596156   18.311083
C   6.898137   7.200923   17.444356
C   6.693650   6.674965   16.106455
H   6.195455   5.677242   15.979827
C   7.103917   7.449064   14.994525
O   7.774186   8.919452   19.032930
C   7.720175   8.705359   15.171407
H   8.047217   9.353254   14.321514
C   7.889473   9.140648   16.542585
H   8.368342   10.129761   16.703634
C   7.511532   8.443567   17.727184
O   4.189438   7.371117   12.723026
H   4.024927   8.964434   21.961734
C   5.079363   8.625552   21.800574
C   5.770084   8.896018   20.542475
H   5.225510   9.446992   19.746828
C   7.101743   8.540221   20.247047
O   3.231463   8.319358   35.100710
C   7.730323   7.872668   21.324055
H   8.794975   7.605055   21.155352
C   7.128876   7.540952   22.609486
H   7.725860   7.023559   23.403387
C   5.791529   7.938446   22.796164
S   4.758741   7.205538   24.468810
H   5.229109   7.183365   29.733516
C   5.387487   7.781633   28.808103
C   5.073430   7.180556   27.515349
H   4.685202   6.132965   27.469968
C   5.300802   7.947370   26.353383
O   6.180546   9.645865   30.277842
C   5.792278   9.264550   26.421503
H   5.975465   9.907720   25.520896
C   6.063699   9.774361   27.759696
H   6.455125   10.811261   27.862679
C   5.918043   9.069222   28.976367
O   2.364048   7.726963   24.127699
O   5.323326   4.789201   24.456870
H   4.947696   8.764800   32.640138
C   6.036424   8.578362   32.588972
C   6.737864   8.978408   31.377199
O   5.362512   4.811313   35.398149
C   8.105974   8.654853   31.590515
H   8.774414   8.942142   30.748203
C   8.757702   8.004294   32.680319
H   9.853007   7.808680   32.651551
C   7.950997   7.606646   33.815651
H   8.421350   7.096213   34.686233
C   6.598061   7.944762   33.730901
S   5.503666   7.316161   35.408533
H   6.490225   6.683930   40.559073
C   6.649271   7.367902   39.692982
C   6.121607   6.962561   38.401530
H   5.571191   5.983162   38.322181
C   6.304155   7.792917   37.267965
O   7.928485   8.910157   41.191251
C   6.986785   9.019193   37.413674
H   7.145323   9.727294   36.561072
C   7.483902   9.329149   38.741392
H   8.036856   10.293193   38.843736
H   13.463896   8.734161   -0.099656
C   14.495337   8.429963   -0.414104
C   15.018673   8.811906   -1.721514
H   14.359240   9.417409   -2.381447
C   16.302525   8.501383   -2.221540
C   17.068046   7.767599   -1.281601
H   18.105977   7.546809   -1.604776
C   16.634648   7.323126   0.032211
H   17.340537   6.772314   0.706277
C   15.323592   7.675965   0.430326
S   14.461247   6.729903   2.070465
H   14.929808   6.615893   7.345999
C   15.068369   7.230045   6.429419
C   14.726973   6.657510   5.132009
H   14.340146   5.610139   5.068979
C   14.931294   7.459601   3.987692
O   15.864721   9.088668   7.909053
C   15.396545   8.782766   4.065866
H   15.532368   9.446443   3.171090
C   15.693339   9.261297   5.410898
H   16.063113   10.303493   5.529807
C   15.582672   8.522315   6.609953
O   11.987355   6.814579   1.778749
O   15.330591   4.387131   2.092733
C   16.199386   8.563864   39.933188
H   14.774307   8.274918   10.334786
C   15.862466   8.090128   10.250400
C   16.484256   8.435510   8.978390
O   15.803692   4.333920   13.055090
C   17.868632   8.126922   9.142156
H   18.491389   8.360899   8.247976
C   18.597806   7.558139   10.229614
H   19.693913   7.381774   10.160746
C   17.864053   7.239766   11.432168
H   18.384216   6.796327   12.310840
C   16.496097   7.534377   11.387185
S   15.438392   6.822261   13.050503
H   15.391902   6.596156   18.311083
C   15.733713   7.200923   17.444356
C   15.529226   6.674965   16.106455
H   15.031030   5.677242   15.979827
C   15.939492   7.449064   14.994525
O   16.609762   8.919452   19.032930
C   16.555751   8.705359   15.171407
H   16.882793   9.353254   14.321514
C   16.725049   9.140648   16.542585
H   17.203918   10.129761   16.703634
C   16.347108   8.443567   17.727184
O   13.025013   7.371117   12.723026
H   12.860503   8.964434   21.961734
C   13.914939   8.625552   21.800574
C   14.605660   8.896018   20.542475
H   14.061086   9.446992   19.746828
C   15.937319   8.540221   20.247047
O   12.067038   8.319358   35.100710
C   16.565899   7.872668   21.324055
H   17.630551   7.605055   21.155352
C   15.964452   7.540952   22.609486
H   16.561436   7.023559   23.403387
C   14.627105   7.938446   22.796164
S   13.594317   7.205538   24.468810
H   14.064685   7.183365   29.733516
C   14.223063   7.781633   28.808103
C   13.909006   7.180556   27.515349
H   13.520778   6.132965   27.469968
C   14.136378   7.947370   26.353383
O   15.016122   9.645865   30.277843
C   14.627853   9.264550   26.421503
H   14.811040   9.907720   25.520896
C   14.899275   9.774361   27.759696
H   15.290701   10.811261   27.862679
C   14.753619   9.069222   28.976367
O   11.199623   7.726963   24.127699
O   14.158902   4.789201   24.456870
H   13.783271   8.764800   32.640138
C   14.871999   8.578362   32.588972
C   15.573440   8.978408   31.377199
O   14.198088   4.811313   35.398149
C   16.941550   8.654853   31.590515
H   17.609990   8.942142   30.748203
C   17.593278   8.004294   32.680319
H   18.688583   7.808680   32.651551
C   16.786573   7.606646   33.815651
H   17.256926   7.096213   34.686233
C   15.433637   7.944762   33.730901
S   14.339241   7.316161   35.408533
H   15.325801   6.683930   40.559073
C   15.484847   7.367902   39.692982
C   14.957182   6.962561   38.401530
H   14.406767   5.983162   38.322181
C   15.139731   7.792917   37.267965
O   16.764061   8.910157   41.191251
C   15.822361   9.019193   37.413674
H   15.980899   9.727294   36.561072
C   16.319478   9.329149   38.741392
H   16.872432   10.293193   38.843736
H   22.299472   8.734161   -0.099656
C   23.330913   8.429963   -0.414104
C   23.854249   8.811906   -1.721514
H   23.194816   9.417409   -2.381447
C   25.138100   8.501383   -2.221540
C   25.903622   7.767599   -1.281601
H   26.941553   7.546809   -1.604776
C   25.470224   7.323126   0.032211
H   26.176112   6.772314   0.706277
C   24.159168   7.675965   0.430326
S   23.296822   6.729903   2.070465
H   23.765383   6.615893   7.345999
C   23.903945   7.230045   6.429419
C   23.562549   6.657510   5.132009
H   23.175722   5.610139   5.068979
C   23.766870   7.459601   3.987692
O   24.700297   9.088668   7.909053
C   24.232121   8.782766   4.065866
H   24.367944   9.446443   3.171090
C   24.528915   9.261297   5.410898
H   24.898689   10.303493   5.529807
C   24.418248   8.522315   6.609953
O   20.822931   6.814579   1.778749
O   24.166167   4.387131   2.092733
C   25.034962   8.563864   39.933188
H   23.609883   8.274918   10.334786
C   24.698042   8.090128   10.250400
C   25.319832   8.435510   8.978390
O   24.639268   4.333920   13.055090
C   26.704208   8.126922   9.142156
H   27.326965   8.360899   8.247976
C   27.433382   7.558139   10.229614
H   28.529489   7.381774   10.160745
C   26.699628   7.239766   11.432168
H   27.219791   6.796327   12.310840
C   25.331672   7.534377   11.387185
S   24.273968   6.822261   13.050503
H   24.227478   6.596156   18.311083
C   24.569288   7.200923   17.444356
C   24.364801   6.674965   16.106455
H   23.866606   5.677242   15.979827
C   24.775068   7.449064   14.994525
O   25.445338   8.919452   19.032930
C   25.391327   8.705359   15.171407
H   25.718369   9.353254   14.321514
C   25.560624   9.140648   16.542585
H   26.039494   10.129761   16.703634
C   25.182683   8.443567   17.727184
O   21.860589   7.371117   12.723026
H   21.696079   8.964434   21.961734
C   22.750515   8.625552   21.800574
C   23.441236   8.896018   20.542475
H   22.896662   9.446992   19.746828
C   24.772895   8.540221   20.247047
O   20.902614   8.319358   35.100710
C   25.401474   7.872668   21.324055
H   26.466126   7.605055   21.155352
C   24.800028   7.540952   22.609486
H   25.397012   7.023559   23.403387
C   23.462681   7.938446   22.796164
S   22.429893   7.205538   24.468810
H   22.900260   7.183365   29.733516
C   23.058638   7.781633   28.808103
C   22.744581   7.180556   27.515349
H   22.356354   6.132965   27.469968
C   22.971953   7.947370   26.353383
O   23.851697   9.645865   30.277842
C   23.463429   9.264550   26.421503
H   23.646616   9.907720   25.520896
C   23.734850   9.774361   27.759696
H   24.126277   10.811261   27.862679
C   23.589194   9.069222   28.976367
O   20.035199   7.726963   24.127699
O   22.994477   4.789201   24.456870
H   22.618847   8.764800   32.640138
C   23.707575   8.578362   32.588972
C   24.409016   8.978408   31.377199
O   23.033663   4.811313   35.398149
C   25.777126   8.654853   31.590515
H   26.445566   8.942142   30.748203
C   26.428854   8.004294   32.680319
H   27.524159   7.808680   32.651551
C   25.622149   7.606646   33.815651
H   26.092501   7.096213   34.686233
C   24.269213   7.944762   33.730901
S   23.174817   7.316161   35.408533
H   24.161377   6.683930   40.559073
C   24.320423   7.367902   39.692982
C   23.792758   6.962561   38.401530
H   23.242343   5.983162   38.322181
C   23.975307   7.792917   37.267965
O   25.599637   8.910157   41.191251
C   24.657936   9.019193   37.413674
H   24.816475   9.727294   36.561072
C   25.155054   9.329149   38.741392
H   25.708007   10.293193   38.843736
