138
Lattice="7.398570 0.0  0.0  0.000000 10.679083  0.0  0.000000 0.000000 29.768127"
H   3.142703   3.456864   12.783197
C   3.114080   3.938960   11.764247
C   2.974466   3.111485   10.600321
H   1.184820   8.829453   8.968305
H   2.865327   5.836545   12.644776
H   1.321562   8.018423   12.368191
C   2.799680   5.322293   11.700689
C   2.437365   3.732764   9.439894
H   2.436167   3.210757   8.480094
C   2.312881   5.939561   10.523332
C   1.301492   7.811321   9.029504
C   2.108195   5.090205   9.397563
H   1.939035   7.430453   8.212730
C   0.944072   7.939053   11.415540
H   0.313336   7.392924   9.028092
H   1.729771   5.510367   8.480158
C   2.035951   7.447802   10.400334
H   0.520224   8.871709   11.123843
H   0.024829   7.274794   11.387252
C   3.392174   8.261714   10.437380
H   2.863677   9.177082   12.364436
H   4.256006   7.663659   8.552114
C   3.629396   8.991165   11.607603
C   4.356050   8.271315   9.409618
C   4.790585   9.796210   11.736219
C   5.534722   9.024040   9.643826
H   4.924735   10.303235   12.663217
H   6.235356   9.106509   8.730832
C   5.745302   9.922526   10.726418
O   6.936616   10.773751   10.764611
H   9.205022   11.622471   12.084507
C   7.064642   11.670253   11.952210
C   8.299868   12.029689   12.486953
H   4.914494   12.277085   11.951968
C   5.917741   12.321728   12.454785
C   8.498159   12.827359   13.653683
H   9.487441   13.018507   14.072018
C   6.026100   13.066530   13.686220
C   7.321286   13.237888   14.328301
C   5.013268   13.566972   14.607207
O   3.716953   13.633383   14.452984
C   7.269283   13.947860   15.627134
N   5.781129   14.024046   15.736077
O   8.153059   14.588993   16.304213
H   3.160921   14.700792   16.210398
C   5.070523   14.185302   16.972423
C   3.689990   14.431474   17.030998
H   6.757823   13.683940   18.171923
C   5.721806   13.904526   18.199895
C   2.996945   14.389621   18.274181
H   1.969161   14.686974   18.339461
C   5.073485   13.791341   19.453356
C   3.631231   14.094198   19.494514
O   8.246227   13.944411   20.127913
N   5.708239   13.454000   20.634925
H   3.117741   14.186489   20.469879
C   7.335319   13.325597   20.770618
O   3.724720   12.712357   21.865470
C   5.021882   12.838958   21.706948
C   7.305131   12.511208   21.980546
C   6.010931   12.217488   22.561095
H   9.450669   12.188594   22.246142
C   8.450166   11.961156   22.613481
C   5.805403   11.323165   23.667609
H   4.858694   11.090179   23.969012
C   8.252286   11.056804   23.692325
C   6.950085   10.692287   24.195666
H   9.113900   10.612060   24.126984
H   5.799656   8.526390   27.468373
O   6.963556   9.601265   25.225129
C   5.258600   8.461400   26.625023
C   5.678536   8.943340   25.340138
H   3.740846   7.444825   27.641609
H   1.145189   8.191094   27.108455
H   1.439969   6.947136   23.568322
C   4.005312   7.819455   26.700894
C   4.914699   8.673425   24.178718
H   5.358180   8.864311   23.231631
C   1.333970   7.144177   27.034448
C   3.292618   7.462353   25.514229
C   0.915485   6.934292   24.461747
H   0.425753   6.585949   27.334865
C   3.686205   7.988172   24.282220
H   0.229216   6.132440   24.518211
H   2.001134   6.826345   27.813420
H   0.393508   7.907389   24.608347
C   1.947170   6.767007   25.669523
H   3.129325   7.776289   23.429055
C   2.256089   5.207398   25.617198
H   2.971969   5.115325   23.652668
H   1.866461   4.944767   27.717988
C   2.771136   4.558376   24.482230
C   2.157097   4.441244   26.788337
C   2.956079   3.152681   24.446878
C   2.260983   3.021242   26.768939
H   3.190933   2.634534   23.534456
H   2.132099   2.433255   27.653353
C   2.627435   2.340611   25.569898
O   2.937058   0.925277   25.412331
H   5.138157   0.752861   26.905955
C   3.088979   0.262736   26.740885
C   4.298128   0.401571   27.457835
H   1.016077   -0.456646   26.770136
C   2.015828   -0.428924   27.244358
C   4.526567   -0.222615   28.700529
H   5.485770   -0.303651   29.139035
C   2.090643   -0.894184   28.565149
C   3.377129   -0.851931   29.286465
C   0.984858   -1.423995   29.354038
O   -0.293748   -1.621726   29.113699
C   3.269790   -1.671075   30.506677
N   1.724744   -1.785911   30.557929
O   4.139053   -2.228533   31.254144
C   1.007297   -1.921851   31.783048
H   2.696025   -1.291779   32.881247
H   -0.954758   -2.295653   31.050749
C   1.682710   -1.557277   32.969816
C   -0.375346   -2.276099   31.897085
C   1.017204   -1.491129   34.245251
C   -1.034487   -2.353475   33.161762
H   -2.009016   -2.710018   33.253793
O   -0.214684   -1.044213   36.934794
C   -0.285932   -1.985624   34.297134
N   1.664045   -1.011464   35.362138
C   1.025712   -0.801298   36.620215
O   4.063156   -0.629995   34.279506
C   3.235548   -0.607380   35.263482
H   -0.832205   -2.014556   35.218349
C   2.118028   -0.232219   37.431597
C   3.341829   -0.144320   36.643767
H   1.243117   0.359465   39.333901
C   2.087891   0.388002   38.699431
C   4.473209   0.370578   37.312346
H   5.420301   0.323115   36.810211
C   3.261740   0.886816   39.334726
C   4.481770   0.834231   38.629050
O   3.228816   1.637491   40.621807
H   5.355414   1.290469   38.942718
