644
Lattice="5.465253 0.0  0.0  0.000000 9.877173  0.0  0.000000 0.000000 127.431287"
C   4.130427   6.897772   -0.088769
C   0.697290   3.112540   0.682529
F   1.245868   4.337842   0.815718
H   3.552765   5.996822   0.005113
H   -0.071264   1.385999   1.653620
F   5.586476   8.411507   0.975715
C   4.808673   7.300209   0.984770
C   0.515328   2.267054   1.771688
C   4.511385   6.590905   2.274001
H   5.377435   6.545841   2.948651
C   1.174358   2.487027   3.027437
F   2.597867   2.714945   2.820394
F   4.077386   5.153820   2.060938
F   3.153094   8.601964   2.571410
F   0.654332   3.664731   3.612377
H   1.429879   0.373130   3.519058
F   2.141081   6.661495   2.999169
C   3.349607   7.324670   3.156520
F   5.079210   0.859953   4.028227
C   0.967369   1.200181   4.034663
C   3.780426   7.434786   4.628136
F   -0.223246   7.831123   4.733144
C   1.500220   1.052177   5.492703
F   2.904648   0.896049   5.518135
H   3.257734   8.294747   5.035846
F   3.964515   5.131818   4.945164
F   0.895612   -0.092415   6.111127
H   1.674290   3.129292   5.799514
F   2.093991   6.028819   5.571906
C   3.469855   6.243144   5.531525
F   5.139666   2.591259   6.251268
C   1.151418   2.334162   6.302524
C   4.001865   6.370221   7.052203
H   5.032379   6.701744   7.077650
C   1.646304   2.454157   7.826528
F   3.012361   2.619581   7.881447
F   4.164346   5.011886   7.633111
F   2.991583   8.484645   7.251342
F   1.119082   3.588614   8.470360
H   1.745607   0.383125   8.201330
F   1.857284   6.718061   8.173599
C   3.198853   7.310634   7.968528
F   5.193130   0.949143   8.584548
C   1.226280   1.185854   8.669867
C   3.872995   7.645655   9.353211
F   -0.185504   8.109192   9.173176
C   1.682072   1.129567   10.162116
F   3.083268   1.050295   10.165395
H   3.370412   8.520463   9.700226
F   4.606701   5.512440   10.152553
F   1.181213   -0.039927   10.750073
H   1.712476   3.242853   10.703626
F   2.452119   6.031308   10.568630
C   3.757692   6.569955   10.487290
F   5.243191   2.682960   10.893574
C   1.241098   2.317241   11.076582
C   4.191609   7.214323   11.829031
H   3.805505   8.209639   11.883402
C   1.566222   2.164315   12.587442
F   2.945094   2.307471   12.692786
F   5.640421   7.307650   11.889749
F   2.363080   6.356780   13.328160
F   0.991839   3.267972   13.214997
H   1.626129   0.038971   12.790766
F   4.077194   5.026099   13.062715
C   3.739424   6.360011   13.140705
F   5.122460   0.669367   13.125137
C   1.104149   0.838542   13.275568
C   4.374008   6.944747   14.420792
H   5.413423   6.952883   14.371159
C   1.484094   0.720637   14.863932
F   2.791598   0.280540   15.033226
H   4.138419   7.970476   14.379313
F   3.573384   5.126042   15.645651
F   0.650720   -0.199585   15.515648
H   2.151826   2.737475   15.144683
F   2.773926   7.105784   16.276577
C   3.928046   6.430420   15.839716
H   0.505448   2.386890   15.716602
C   1.504480   2.027605   15.659578
C   5.070647   6.519579   16.885148
H   5.960866   6.952540   16.461790
C   1.866171   2.121435   17.165991
F   3.259970   2.389293   17.227512
H   5.280388   5.506699   17.116878
F   5.890147   7.309551   18.961131
F   1.197539   3.205756   17.673348
H   2.024446   0.028300   17.551319
F   4.407597   8.616136   17.872571
C   4.716045   7.315306   18.224295
H   0.484394   0.667789   17.934140
C   1.518048   0.865298   18.012034
C   3.658835   6.723755   19.172453
H   3.295409   7.471966   19.911779
C   1.979620   0.860904   19.509696
F   3.362368   0.978685   19.604133
H   2.848520   6.358241   18.603090
F   4.966088   4.750017   19.611025
F   1.631631   -0.406203   20.105133
H   1.501623   2.909151   19.845901
F   2.971919   4.839073   20.575411
C   4.077442   5.610981   20.236211
H   0.212405   1.962070   20.315227
C   1.251631   2.028151   20.298703
C   4.731674   6.212344   21.501686
H   5.571292   6.715022   21.157765
C   1.596378   2.198795   21.826899
F   2.995760   2.385069   22.003474
H   5.073430   5.464183   22.180973
F   3.942535   8.400275   22.010827
F   0.932787   3.295861   22.310125
H   1.542330   0.012897   22.147760
F   2.520394   6.700604   22.478682
C   3.883464   7.091886   22.464222
H   0.122694   0.785088   22.543202
C   1.143364   0.920202   22.614637
C   4.403883   7.016716   23.942434
H   5.423741   6.810000   23.908810
C   1.678323   0.804247   24.073703
F   3.062216   0.586987   24.106771
H   4.206865   7.934324   24.392064
F   3.928187   4.719213   24.249074
F   1.101367   -0.356303   24.567813
H   1.645362   2.876989   24.611447
F   2.311414   6.209891   24.909913
C   3.699902   5.948682   24.797589
H   0.287880   1.931037   25.162948
C   1.319190   1.956420   25.014139
C   4.360631   5.985954   26.248034
H   5.408505   5.977621   26.098957
C   1.878119   2.123372   26.526931
F   3.306358   2.285555   26.557798
H   4.168710   5.067032   26.764893
F   4.307028   8.421423   26.506727
F   1.299327   3.288936   27.034503
H   1.525371   0.008918   26.833378
F   2.585126   7.267169   27.209890
C   3.970833   7.201681   27.142298
H   0.396053   1.133531   27.467804
C   1.433377   0.951517   27.363309
C   4.594857   7.226141   28.578248
H   5.637265   7.188432   28.532496
C   2.042269   0.837599   28.856275
F   3.406784   0.483834   28.760281
H   4.285771   8.155090   28.992172
F   4.648536   4.867367   28.977347
F   1.348529   -0.278976   29.395894
H   2.299790   2.903125   29.237726
F   2.768860   5.991358   29.459363
C   4.160283   6.053781   29.503836
H   0.851977   2.218771   29.873791
C   1.911474   2.063335   29.764341
C   4.629790   6.103871   31.008885
H   5.715192   6.023211   30.996872
C   2.523463   2.166873   31.212053
F   3.868235   1.988709   31.172812
H   4.273822   5.231269   31.526713
F   4.571509   8.513721   31.285287
F   2.274506   3.437924   31.723440
H   1.963804   0.168291   31.737867
F   2.836547   7.364435   32.082976
C   4.239293   7.319806   31.897934
H   0.926312   1.419668   32.312273
C   1.911604   1.096452   32.198109
C   4.928472   7.223741   33.302200
H   5.984243   7.257086   33.178341
C   2.533805   0.982971   33.645992
F   3.892548   0.678388   33.573730
H   4.664628   8.079318   33.864522
F   5.399686   4.885803   33.576806
F   1.940732   -0.065021   34.307927
H   2.598980   3.154519   34.016848
F   3.273266   5.602231   34.032777
C   4.652610   5.919110   34.146933
H   1.320191   2.249624   34.886767
C   2.355416   2.239923   34.567613
C   5.008919   6.065622   35.645438
H   6.106326   5.961435   35.726231
C   3.192381   2.273869   35.887635
F   4.581642   2.405433   35.584042
H   4.620678   5.179923   36.134232
F   5.193908   8.417669   35.952830
F   2.853747   3.391248   36.654791
H   3.787628   0.348747   36.629885
F   3.223442   7.531445   36.171884
C   4.557638   7.326206   36.422702
H   2.051516   0.616827   36.713082
C   3.007689   1.044893   36.870436
C   4.813672   7.271638   38.001344
H   5.873619   7.470754   38.121384
C   3.133065   1.326973   38.423985
F   4.341267   1.967624   38.646390
H   4.218911   8.066305   38.459980
F   5.403562   4.974481   38.327479
F   3.203129   0.074743   38.990908
H   2.073198   3.092417   38.773028
F   3.170497   5.535023   38.295977
C   4.435211   5.950139   38.741959
H   1.057067   1.712574   38.755132
C   1.982306   2.080313   39.064005
C   4.409224   6.135142   40.259797
H   4.166677   5.255264   40.791929
C   1.817922   2.028011   40.624536
F   0.958148   3.086442   41.088474
H   3.649213   6.859158   40.453510
F   6.780501   5.943761   40.558457
F   1.266265   0.819638   40.946577
H   3.804507   2.810626   40.828076
F   5.952356   8.032873   40.525407
C   5.709045   6.683842   40.958640
H   3.694933   1.173829   41.317047
C   3.225100   2.103618   41.345148
C   5.664665   6.572373   42.517365
H   5.257577   5.596707   42.694569
C   3.284121   2.632470   42.798929
F   2.895147   3.999002   42.846157
H   6.669824   6.565301   42.818573
Cl   3.731365   7.989326   42.723905
Cl   4.638087   2.562394   43.246701
H   1.404945   1.775413   43.536465
F   5.672416   8.766048   43.493058
C   4.878344   7.605004   43.362528
H   2.748454   0.872708   43.814189
C   2.412225   1.840749   43.837712
C   4.540182   6.991063   44.775486
H   5.462857   6.763353   45.259824
C   2.368152   2.348375   45.302823
F   3.641955   2.641083   45.687883
F   4.049710   5.580914   44.650679
F   3.732670   9.118168   45.305688
F   1.579292   3.521606   45.458910
H   2.241806   0.350216   45.857290
F   2.372999   7.338044   45.727178
C   3.714512   7.786878   45.768034
F   5.839888   0.992623   46.155075
C   1.849896   1.221145   46.301870
C   4.284438   7.707333   47.256050
F   0.123902   8.199168   47.287694
C   2.237601   1.242813   47.792168
F   3.586091   1.001053   47.893528
H   3.763291   8.410164   47.812451
F   5.002752   5.332239   47.331826
F   1.548358   0.172578   48.416525
H   2.568610   3.370739   48.305056
F   2.849890   5.775099   47.819610
C   4.152466   6.253648   47.926318
F   6.043449   2.956769   48.532757
C   1.956290   2.574407   48.661252
C   4.455314   6.270959   49.441816
H   5.316277   6.822243   49.503984
C   2.287852   2.478132   50.226909
F   3.698868   2.560539   50.415296
F   4.842281   4.934273   49.959515
F   3.060415   8.138597   49.785587
F   1.743056   3.625528   50.825861
H   2.296920   0.417146   50.484699
F   2.395328   6.220244   50.637159
C   3.488216   7.017162   50.426252
F   5.793247   1.028523   50.718984
C   1.807297   1.236225   50.974532
C   4.125210   7.550951   51.813577
F   -0.021433   8.155533   51.632181
C   2.118441   1.111056   52.528553
F   3.468994   0.867191   52.760988
H   3.523422   8.399954   52.123180
F   4.992051   5.666381   53.003333
F   1.467964   -0.049551   52.959715
H   2.232540   3.147958   52.988484
F   2.730797   6.160414   53.232422
C   4.063433   6.721603   53.120657
F   5.632511   2.618833   53.089384
C   1.650784   2.351645   53.335499
C   4.350930   7.539264   54.427989
H   3.861453   8.500464   54.459740
C   1.957506   2.384283   54.912354
F   3.279974   2.782404   55.095530
F   5.746629   7.895946   54.459367
F   2.540929   6.777215   55.897941
F   1.198172   3.430817   55.459614
H   2.063558   0.325575   55.289373
F   4.104511   5.259907   55.447085
C   3.907388   6.650644   55.700251
F   5.637995   0.845005   55.800470
C   1.689349   1.129251   55.770218
C   4.641759   7.076282   56.939226
H   5.686347   6.966571   56.792820
C   2.225972   1.100157   57.233666
F   3.637627   1.011841   57.359141
H   4.459145   8.118229   57.154178
F   4.748334   4.992165   57.979152
F   1.731621   -0.020802   57.869359
H   2.067001   3.208944   57.486269
F   2.918198   6.159199   58.404607
C   4.284903   6.257365   58.257587
H   0.654081   2.310526   57.950687
C   1.805765   2.340287   58.059371
C   4.893560   6.648784   59.625845
H   5.954107   6.853260   59.453669
C   2.136478   2.585672   59.574470
F   3.527973   2.574755   59.614165
H   4.798454   5.802145   60.210918
F   4.794599   9.016179   59.661692
F   1.723550   3.847026   59.993867
H   1.962409   0.583226   60.161768
F   2.892859   7.899014   60.193704
C   4.311392   7.878890   60.359268
H   0.561174   1.427664   60.501661
C   1.612093   1.508367   60.567181
C   4.756140   8.009324   61.879190
H   5.817282   8.251332   61.890944
C   2.017635   1.418308   62.038320
F   3.407276   1.240200   62.191463
H   4.231447   8.741381   62.357880
F   5.452476   5.755622   62.314855
F   1.429330   0.301763   62.587412
H   2.066988   3.537936   62.318346
F   3.275593   6.199131   62.331901
C   4.521217   6.711218   62.685363
H   0.550113   2.775216   62.756016
C   1.587221   2.698423   62.858078
C   4.603949   6.829920   64.248321
H   5.616478   6.970280   64.434966
C   1.965993   2.748539   64.359842
F   3.349867   2.899057   64.527679
H   4.343411   5.879998   64.622151
F   4.085472   9.157281   64.395945
F   1.314134   3.907742   64.925840
H   2.045430   0.586606   64.717431
F   2.390202   7.647417   64.568570
C   3.688665   7.919045   64.871485
H   0.476316   1.286024   64.792042
C   1.463105   1.423491   65.078987
C   3.912075   7.925093   66.441937
H   5.030330   8.066977   66.688312
C   1.601924   1.483892   66.639834
F   2.892210   1.272198   67.033031
H   3.422451   8.732411   66.861299
F   3.957476   5.448917   66.616890
F   0.818980   0.401377   67.136528
H   1.865603   3.575007   67.187779
F   2.085124   6.560214   67.059727
C   3.453935   6.643778   67.190717
H   0.224281   3.139688   66.802996
C   1.093044   2.774420   67.282245
C   3.876343   6.696803   68.688269
H   4.944238   6.589870   68.809988
C   0.733644   2.691241   68.811866
F   0.474231   4.020706   69.208003
H   3.432205   5.840730   69.167000
F   4.414926   9.004194   69.031241
F   -0.426809   1.900569   68.933208
H   2.703070   2.702980   69.741638
F   2.255382   8.444330   68.886174
C   3.489695   8.029774   69.393458
H   2.172146   1.224476   69.173456
C   1.799830   2.028322   69.715999
C   3.353700   7.862936   70.938641
H   3.113758   8.829952   71.357229
C   1.502941   1.574965   71.179146
F   2.718103   1.093504   71.763445
H   2.471663   7.251965   71.117806
F   5.673258   7.605549   71.149583
F   0.593266   0.485339   71.156635
H   1.755004   3.418372   72.177730
F   4.481563   5.758385   71.598069
C   4.491696   7.171805   71.718740
H   0.152189   3.122381   71.648581
C   0.975344   2.702471   72.103414
C   4.613602   7.593141   73.207265
H   4.819380   8.588617   73.356778
C   0.547770   2.392306   73.590557
F   -0.238450   3.410551   74.212042
H   5.525403   7.079470   73.553709
F   2.233262   7.955975   73.562238
F   -0.228294   1.256229   73.623580
H   2.471958   2.901036   74.193835
F   3.037189   5.946027   74.038331
C   3.381534   7.294810   74.100798
H   2.297516   1.129493   74.066166
C   1.809805   2.078364   74.422172
C   3.631255   7.741818   75.578271
H   3.906435   8.794916   75.528533
C   1.715801   1.990913   75.954428
F   2.810426   1.360367   76.427774
H   2.698840   7.618482   76.106641
F   5.988438   7.436467   76.038392
F   0.551500   1.304448   76.322193
H   2.628258   3.845093   76.396646
F   4.638743   5.666847   76.121819
C   4.730967   6.989895   76.427637
H   1.014142   4.038541   76.185432
C   1.702092   3.399217   76.649615
C   4.671556   7.065965   77.972150
H   5.290291   6.266706   78.412494
C   1.501076   3.478284   78.227447
F   1.996916   4.735559   78.609021
H   3.639723   6.853706   78.271871
F   6.531033   8.599711   78.394538
F   0.187278   3.459126   78.510698
H   3.310788   2.359444   78.570829
F   4.462085   9.485121   78.116989
C   5.199639   8.334651   78.682765
H   1.824259   1.366901   78.839123
C   2.295052   2.339054   78.941001
C   4.924467   8.416039   80.243214
H   5.482683   9.189678   80.765437
C   2.539855   2.495640   80.455170
F   3.688865   3.248980   80.632751
H   3.907487   8.809879   80.295320
F   6.082043   6.427379   80.825444
F   2.823513   1.228807   80.970848
H   1.057853   3.952526   80.817497
F   3.876782   6.269265   80.794575
C   4.932442   7.133894   81.111026
H   0.560710   2.341113   81.272478
C   1.348588   3.090842   81.265638
C   4.900001   7.503914   82.629405
H   4.934333   6.611880   83.162886
C   1.551328   3.501704   82.778553
F   2.606827   4.383593   82.896139
H   3.965999   7.938562   82.832834
F   7.078021   8.602601   82.667471
F   0.407321   4.146244   83.220194
H   2.513615   1.704042   83.313021
F   5.291437   9.743028   83.134305
C   5.871503   8.539886   83.268209
H   0.929620   1.662024   83.648721
C   1.783701   2.286777   83.727279
C   6.098892   8.199501   84.813139
H   6.085093   7.164246   84.968112
C   2.097407   2.521599   85.235375
F   3.300050   3.252321   85.337528
H   6.986000   8.627430   85.170646
Cl   3.776440   8.316032   85.268553
Cl   2.344964   1.282392   85.872178
H   0.806747   4.224091   85.626552
F   4.994107   10.051641   85.733641
C   5.038379   8.678444   85.765904
H   0.146446   2.627394   85.806320
C   1.001844   3.254713   86.040013
C   5.308520   8.150675   87.322183
H   5.865506   8.938359   87.866880
C   1.093889   3.432928   87.590554
F   2.306152   3.865310   87.993336
F   6.109717   7.005477   87.252774
F   2.995844   8.827237   87.710954
F   0.180551   4.491834   87.955550
H   1.181294   1.365276   88.099642
F   3.448939   6.607868   87.568819
C   3.991843   7.852752   88.049419
F   4.645851   1.895426   87.986760
C   0.612720   2.203131   88.406440
C   4.187357   7.797915   89.627046
F   -0.312252   6.805729   89.983938
C   0.795126   2.350785   89.944279
F   2.192284   2.144765   90.234374
H   4.677593   8.725316   89.923028
F   2.083435   6.564753   89.938291
F   0.157556   1.261614   90.518417
H   0.699006   4.499499   90.130704
F   2.089212   8.837074   90.331891
C   2.849612   7.649979   90.483836
F   4.317354   3.928668   90.335999
C   0.312912   3.683204   90.671719
C   3.095435   7.390999   91.962980
H   3.768487   6.576965   92.073859
C   0.518213   3.843245   92.161958
F   1.842289   4.105065   92.371610
F   1.849337   6.829610   92.583712
F   4.838192   9.000702   92.143838
F   -0.247098   4.940006   92.619615
H   0.606739   1.732031   92.607774
F   2.811970   9.662978   92.814963
C   3.726875   8.593877   92.831904
F   4.148435   2.176550   92.780641
C   0.068163   2.536032   93.025248
C   4.099341   8.325860   94.307338
F   -0.277206   7.266394   94.434716
C   0.378192   2.485494   94.561731
F   1.760674   2.308284   94.775820
H   4.543999   9.213509   94.652798
F   2.598117   6.765498   95.391059
F   -0.219701   1.323123   95.107795
H   0.335863   4.648523   94.976716
F   1.974737   8.990990   95.200449
C   3.019941   8.076438   95.413272
F   3.946223   4.061085   94.947337
C   -0.091962   3.743535   95.359905
C   3.631255   8.396004   96.827876
H   4.003503   9.431838   96.839567
C   0.103662   3.725390   96.903057
F   1.459454   3.881074   97.141387
F   4.839134   7.490525   97.051428
F   1.582805   9.165158   97.790149
F   -0.517238   4.828796   97.400118
H   0.231115   1.637154   97.420503
F   2.063968   6.957302   97.874263
C   2.603641   8.260427   97.980671
F   3.848680   2.085983   97.645538
C   -0.209069   2.502978   97.854900
C   3.340051   8.419453   99.355032
H   4.374827   8.229814   99.308946
C   0.269384   2.619602   99.304102
F   1.623039   2.192001   99.353785
H   3.196301   9.501267   99.673764
F   3.108126   6.176547   100.170023
F   -0.420956   1.713980   100.072666
H   0.559185   4.881920   99.485336
F   1.316833   7.595281   100.451607
C   2.740538   7.493724   100.467340
H   -0.860361   4.213180   100.158433
C   0.149458   3.996536   100.068079
C   3.276868   7.808384   101.881485
H   4.332160   8.048476   101.904649
C   0.834270   4.018061   101.473504
F   2.244362   3.979227   101.319975
H   3.106102   6.871328   102.432298
F   3.079106   10.219306   102.090297
F   0.538749   5.271550   101.955107
H   0.742839   1.924330   102.219703
F   1.208977   9.001357   102.573450
C   2.639780   8.986673   102.711649
H   -0.653128   2.805911   102.355675
C   0.354861   2.873325   102.466352
C   3.061392   9.013544   104.167603
H   4.153101   8.837884   104.239364
C   0.730898   2.906988   103.968925
F   2.135215   2.791745   104.005391
H   2.899382   10.029538   104.522570
F   2.631394   6.630942   104.586338
F   0.255342   1.751759   104.541247
H   0.635193   5.099695   104.472880
F   1.116674   8.070927   105.276785
C   2.492080   7.884468   105.172054
H   -0.871630   4.077331   104.953887
C   0.270926   4.080179   104.889499
C   3.091803   7.869517   106.579179
H   4.127684   7.593469   106.454512
C   0.697296   4.168299   106.382520
F   2.092460   4.352206   106.407542
H   2.612245   7.053083   107.113328
F   3.783269   10.199905   106.764082
F   0.111379   5.332145   107.002218
H   0.724387   2.109363   106.658765
F   1.743409   9.619786   107.463377
C   3.063976   9.212983   107.417290
H   -0.774920   2.853788   107.106244
C   0.279628   2.908622   107.197372
C   3.558256   9.100742   108.866154
H   4.641557   8.890621   108.827271
C   0.742578   2.839683   108.705502
F   2.186967   2.636441   108.827642
H   3.377676   9.971303   109.449885
F   3.512104   6.741891   109.028022
F   0.073791   1.800563   109.344159
H   0.751984   4.933799   109.041083
F   1.649993   7.865836   109.375596
C   3.013689   7.912825   109.640806
H   -0.750061   4.179482   109.287496
C   0.307389   4.102540   109.494880
C   3.243009   7.837653   111.235905
H   4.234192   8.169105   111.452274
C   0.569898   4.099993   111.071614
F   1.871912   4.309063   111.321051
H   3.095984   6.799398   111.577124
F   2.165732   9.962890   111.450039
F   -0.146715   5.225971   111.598537
H   0.952564   2.137349   111.947155
F   0.922059   8.117965   111.908166
C   2.220836   8.673615   112.044101
H   -0.633228   2.361017   111.344646
C   0.125673   2.840926   111.913182
C   2.561512   8.839410   113.580354
H   3.412245   9.556512   113.674250
C   -0.419209   2.862820   113.366580
F   -0.664309   1.551911   113.717840
H   1.736617   9.271999   114.093463
F   4.399381   7.195754   114.008911
F   -1.602732   3.610594   113.456288
H   1.456461   2.873456   114.195682
F   2.270123   6.492880   113.959422
C   3.022152   7.557440   114.360166
H   0.966925   4.423377   113.881741
C   0.614777   3.470943   114.304346
C   2.764877   7.747259   115.908943
H   2.944977   6.768890   116.333913
C   0.304560   3.644901   115.845890
F   0.986136   4.746430   116.301904
H   1.645078   7.935113   116.100410
F   4.913532   8.605462   116.454545
F   -1.059708   3.856155   116.035141
H   1.849189   2.294141   116.560386
F   3.217371   10.097583   116.405663
C   3.556050   8.771639   116.731720
H   0.342411   1.554564   116.320811
C   0.771437   2.400564   116.695809
C   3.400914   8.598529   118.289670
H   3.795307   9.514557   118.783480
C   0.645939   2.466896   118.243351
F   1.515429   1.473093   118.743532
H   2.366806   8.421317   118.489408
F   5.611391   7.509556   118.706151
F   -0.689042   2.132945   118.658775
H   1.753737   4.239163   118.274320
F   3.701792   6.252543   118.420265
C   4.146191   7.460448   119.005050
H   0.161904   4.535454   118.717811
C   0.951259   3.848122   118.909930
C   3.941142   7.413312   120.551155
H   4.374249   6.519991   120.918464
C   1.510237   4.026014   120.362201
F   2.915316   3.769892   120.361447
H   2.893319   7.334563   120.862810
F   5.815100   8.851036   121.069248
F   1.387231   5.349307   120.608428
H   1.368936   2.209084   121.563852
F   3.713327   9.761964   121.151109
C   4.487964   8.626048   121.427362
H   -0.154831   3.019357   121.298410
C   0.857396   3.181889   121.517511
C   4.334376   8.220972   122.927410
H   4.724067   7.194108   123.029864
C   1.013658   3.800094   122.918813
F   0.107080   4.912153   123.030423
H   4.970054   8.806966   123.504257
F   2.107703   7.427548   122.802591
F   2.335234   4.330242   122.989036
H   -0.295563   2.509898   124.035525
F   2.497725   9.248260   124.082749
C   3.002471   8.009463   123.684464
H   1.391433   1.906743   124.034828
C   0.721705   2.783395   124.092633
C   3.140588   7.060011   124.902984
H   3.623113   6.158394   124.538669
C   1.041768   3.285478   125.519102
F   2.401520   3.218351   125.730813
H   2.186665   6.787560   125.312461
F   5.399691   7.800523   125.519645
F   0.683968   4.635028   125.625588
H   0.537322   1.531891   126.774981
F   3.605582   8.992964   126.355510
C   4.068617   7.660377   126.077905
H   -0.700538   2.620638   126.631793
C   0.307445   2.564012   126.766338
