138
Lattice="   32.0000000    0.00000000    0.00000000    0.00000000    18.0000000    0.00000000    0.00000000    0.00000000    58.0000000"
H   16.2766175600   8.86036547153   53.5382616699
C   15.5018873289   8.47935229646   52.8684507968
H   14.5292216269   8.59374635596   53.3563735863
H   15.6744666358   7.41036796906   52.7110113107
C   15.5467946198   9.24153215338   51.5626662380
F   16.8229814003   9.12692750944   51.0307724764
F   15.3541315791   10.5883327151   51.8272682314
C   14.5022346120   8.74876962947   50.5512177130
H   13.5195996764   8.82851101771   51.0361361820
H   14.6864108473   7.67967029759   50.3758226512
C   14.4160515735   9.42084175730   49.1752075595
F   15.6202512395   9.25831525896   48.5158982230
F   14.2128296338   10.7752854229   49.2951575120
C   13.2755476804   8.82044736324   48.3271275787
H   12.3282457776   8.92005843885   48.8726887927
H   13.4697362394   7.74645218470   48.2117261075
C   13.1333518536   9.46407473642   46.9446139007
F   14.3500877804   9.36518698751   46.3097930345
F   12.8624932483   10.8050870958   47.1097211853
C   12.0223696378   8.82868316640   46.0835742878
H   11.0709882384   8.94866241205   46.6193494948
H   12.2214290650   7.75102883390   45.9951864010
C   11.8679466854   9.43230674290   44.6746716713
F   13.0555518484   9.32311361238   43.9878950784
F   11.5544093831   10.7587372073   44.7819519786
C   10.8075338784   8.73275234520   43.7675919323
F   9.56788982056   8.72640168810   44.4039576302
H   11.1086210239   7.68417802809   43.6332570446
C   10.6176175787   9.41819400596   42.3735072638
F   11.7962109281   9.30729256047   41.6695675482
F   10.3752369682   10.7478241150   42.5933899687
C   9.48925802438   8.80211060599   41.5254305749
H   8.54728806230   8.89254995155   42.0798322788
H   9.70731957163   7.73148140146   41.3998787434
C   9.35306810422   9.43968327664   40.1247334781
F   10.5583552045   9.32890845631   39.4703563021
F   9.08169613378   10.7834212449   40.2655418604
C   8.25337893009   8.79299457698   39.2611172127
H   7.29240268742   8.88222457005   39.7872130964
H   8.47508569156   7.72533078103   39.1403109871
C   8.10037050250   9.40497844942   37.8548819413
F   9.26594997174   9.27131949683   37.1512115813
F   7.81974864762   10.7459200382   37.9468648547
C   6.94293459179   8.79089435476   37.0108538265
H   6.00254753995   8.97081119376   37.5503949450
F   7.12317550521   7.41193515112   36.9209915926
C   6.83678535414   9.39513084461   35.5758666167
F   8.05253979932   9.27309486428   34.9611247711
F   6.57744737474   10.7348075316   35.7507578028
C   5.74370876560   8.75723618005   34.7010899683
H   4.79166285724   8.84680017869   35.2441872394
H   5.96801739290   7.68709072730   34.5938315723
C   5.59148468212   9.39519475411   33.2941274244
F   6.78956667353   9.30629143724   32.6228249979
F   5.30346233996   10.7345408498   33.4252056021
C   4.49903297810   8.73801127105   32.4293068959
H   3.53834222175   8.79289138647   32.9519050280
H   4.74850783425   7.67996422563   32.3036320196
C   4.29494031203   9.38707405245   31.0515650262
F   5.45309335941   9.33346796514   30.3028279664
F   3.94657935711   10.6946969277   31.2355176189
C   3.19200472769   8.67607816145   30.2014433299
F   1.98162360537   8.72006842791   30.8819449641
H   3.48831603277   7.62165220294   30.1051827378
C   2.98545587922   9.30420847680   28.7860521425
F   4.15343938191   9.08222347352   28.0988054605
F   2.83939032196   10.6779196523   28.9340051222
C   1.78024767442   8.97226448588   27.9619422880
H  0.851909892531   9.33440099009   28.4185584925
C   1.76251013386   8.71132348673   26.6436795315
F  0.599408004473   8.98434694700   25.9878711415
C   2.65056488387   7.91300024597   25.7464807716
H   3.45930016808   7.46622917645   26.3201757499
H   1.97070597792   7.12360592992   25.3919343292
C   3.21575176351   8.56190880296   24.4791193828
F   2.19210873955   9.15472745853   23.7962321025
F   4.12393959853   9.54103576662   24.7953222783
C   3.94463388728   7.50815680879   23.5817803247
H   4.84555364288   7.16350045961   24.1151048240
F   3.11862999675   6.39783366646   23.4138290108
C   4.38112417116   8.01762869017   22.1817252213
F   3.30337079570   8.50892516841   21.4932635951
F   5.24011568882   9.06495146349   22.4303673345
C   5.06680090327   6.94950652803   21.3095622785
H   5.93781112154   6.55392489523   21.8424497613
H   4.37803634072   6.10600533039   21.1704844661
C   5.51170676057   7.45768844864   19.9220389328
F   4.41879139251   7.96756803279   19.2705655797
F   6.39043012154   8.50675283700   20.0843106359
C   6.16139843770   6.36039489563   19.0515530198
H   7.04773399450   5.97993095898   19.5743955098
H   5.43898535809   5.53758135799   18.9573258735
C   6.57740803083   6.81692832022   17.6357295571
F   5.47797859442   7.29099945314   16.9518082906
F   7.49276056729   7.82666142898   17.7371002714
C   7.17053431608   5.68941053631   16.7344360756
F   8.27609151626   5.12174492624   17.3688541038
H   6.41623703324   4.89734740495   16.6224264282
C   7.66215874726   6.17545622485   15.3293347149
F   6.59111568176   6.68828606491   14.6320212258
F   8.55802653274   7.18875139371   15.5486255332
C   8.31784115777   5.06795799821   14.4787739449
H   9.16839242127   4.66460962879   15.0409035808
H   7.59292570575   4.25213057324   14.3473952265
C   8.78045438950   5.54885053639   13.0836019973
F   7.69774688489   6.07256345551   12.4218233454
F   9.67186805061   6.58717064270   13.2315641146
C   9.42712998385   4.44651877388   12.2227478334
H   10.3082637089   4.06641844390   12.7538130979
H   8.72169312221   3.61484264617   12.1088001397
C   9.84919860375   4.90674143228   10.8139528153
F   8.75188378529   5.34096660975   10.1149409974
F   10.7405065537   5.94762512933   10.8956189860
C   10.5466034835   3.79555370095   9.97186412781
H   11.4387717748   3.43934522957   10.5086376466
F   9.66347542900   2.71571918251   9.87982795280
C   10.9595454786   4.27662957488   8.54015546096
F   9.85106436925   4.77898444740   7.91843572248
F   11.8577675670   5.30739083902   8.71919660652
C   11.6073073131   3.19898653442   7.66175738414
H   12.4899328292   2.81898111053   8.19517610063
H   10.8884870260   2.37514796325   7.55015501994
C   12.0607212534   3.67709693331   6.25501795577
F   10.9823866911   4.21456721071   5.58422763596
F   12.9959335764   4.68293648324   6.38012952525
C   12.6793964019   2.55788900608   5.40350626812
H   13.5442521985   2.14053456519   5.93312240216
H   11.9476200522   1.74897738921   5.28228816929
C   13.1566108106   2.95823961944   3.99848353287
F   12.1080928044   3.42965330272   3.23816762502
F   14.0980790544   3.95142113833   4.04458178537
C   13.7513386715   1.73547541286   3.25242519297
F   14.7734324142   1.18583782905   4.02606265201
H   12.9703660943  0.965781811407   3.15000586847
C   14.3158139548   1.99760905075   1.85038719856
F   13.3037873422   2.46697584792   1.05355888398
F   15.3243870359   2.91372420792   1.86416311741
H   14.7066151482   1.06634963497   1.40847881799
