644
Lattice="9.144441 0.0  0.0  0.000000 5.012298  0.0  0.000000 0.000000 140.961437"
H   5.229629   4.425973   1.310407
C   4.624780   5.253328   1.098186
H   3.606696   4.886208   0.930573
C   4.565740   6.222377   2.339733
F   3.513342   7.128073   2.165759
F   5.701350   6.976361   2.421475
F   3.201614   4.427426   3.492332
C   4.282082   5.433014   3.710344
H   5.117708   4.807246   3.871547
C   4.059765   6.204594   5.010689
F   2.830753   6.889766   4.951913
F   5.105090   7.199764   5.107998
C   4.129498   5.306710   6.335098
F   3.220177   4.199294   6.192888
H   5.136341   4.868078   6.590093
F   2.407663   6.560985   7.640900
F   4.556451   7.291976   7.728161
C   3.778446   6.107248   7.639602
H   4.939422   4.800214   8.866064
C   3.959730   5.231209   8.866036
F   3.006174   4.048633   8.844993
F   4.689452   7.059735   10.431415
F   2.510004   6.618000   10.150539
C   3.743092   5.997588   10.288550
H   4.704052   4.570996   11.535988
F   2.816701   4.054004   11.601388
C   3.783386   5.157522   11.554374
F   2.462670   6.405917   13.204101
F   4.596827   7.032261   12.954227
C   3.773063   5.931334   13.006440
H   5.180187   4.742030   14.100270
C   4.138215   5.087810   14.234153
F   3.144856   3.928654   14.304502
F   2.998176   6.662298   15.711630
F   5.167094   6.843259   15.488953
C   4.149246   5.932568   15.563423
H   3.437873   4.304223   16.775700
H   5.232991   4.547169   16.771719
C   4.250426   5.004540   16.820738
F   2.828238   6.205149   18.332432
F   4.941375   6.860875   18.183210
C   4.125212   5.721750   18.191861
H   3.605400   4.284308   19.615357
H   5.293807   4.200208   19.323919
C   4.460000   4.899185   19.508071
F   3.611649   6.563687   21.058555
F   5.858405   6.417480   20.758457
C   4.695672   5.656235   20.813115
H   3.809546   4.645442   22.482873
H   5.023772   3.715475   21.863433
C   4.787467   4.741912   22.118767
F   5.784254   6.525428   23.352267
F   6.903540   4.588833   23.193016
C   5.656954   5.169802   23.317429
H   4.926292   3.659470   24.733799
H   4.053629   5.208852   24.682044
C   5.020399   4.748443   24.729260
F   5.506027   6.559934   26.206054
F   7.129946   4.960069   26.004371
C   5.729643   5.165365   26.034741
C   5.157341   4.509120   27.341483
H   5.081661   3.415974   27.157334
H   4.135991   4.887423   27.527297
C   5.898383   4.691137   28.718642
F   5.971449   6.074233   28.947233
F   7.172750   4.238384   28.519866
H   5.061758   3.037589   29.785719
C   5.300168   4.064817   29.995078
H   4.428407   4.574025   30.212772
F   6.852320   5.297524   31.342714
F   7.232188   3.148783   31.127864
C   6.203770   4.081310   31.271810
H   5.254088   2.827193   32.777828
C   5.447660   3.864214   32.632881
H   4.480018   4.280138   32.494979
C   6.107587   4.492631   33.874772
F   5.864710   5.862816   33.750123
F   7.535030   4.282034   33.826805
H   4.517726   4.346252   35.261227
H   5.511008   2.968774   35.270723
C   5.521288   4.029018   35.241501
F   7.449802   3.919252   36.655339
F   6.512286   5.912414   36.418733
C   6.253460   4.548875   36.542883
C   5.451079   4.355448   37.879924
H   5.339679   3.316578   37.971775
H   4.504752   4.696820   37.809531
C   6.050029   4.770248   39.253949
F   7.336962   4.256248   39.348607
F   6.173498   6.162392   39.276576
C   5.299590   4.378327   40.624133
H   4.409682   4.930528   40.693031
H   5.125415   3.346076   40.540337
F   7.188204   3.747612   42.028354
C   6.065556   4.585838   42.006969
F   6.579610   5.940817   42.006201
H   4.345770   4.942796   43.231471
C   5.247882   4.402969   43.327626
H   5.102220   3.381395   43.481219
F   7.285484   4.763617   44.572130
C   5.973320   5.025007   44.637540
F   5.801245   6.402853   44.581662
C   5.433045   4.517837   45.911843
H   4.856319   3.587821   45.882968
C   5.820116   5.117813   47.057848
F   6.558250   6.236307   47.071751
H   10.143933   7.005358   1.645232
C   9.288855   7.556087   1.262780
H   8.546965   6.746027   1.188001
C   8.870550   8.384011   2.450677
F   7.629582   8.917031   2.214114
F   9.855265   9.440344   2.546027
F   8.152859   6.214861   3.640849
C   8.869728   7.517152   3.773532
H   9.896841   7.136588   3.792743
C   8.515672   8.236536   5.091583
F   7.282784   8.814866   4.910300
F   9.425801   9.302215   5.271079
C   8.532672   7.425372   6.430737
F   7.428035   6.381479   6.361904
H   9.405616   6.867146   6.567859
F   7.134928   8.982247   7.638484
F   9.392866   9.226939   7.745297
C   8.350822   8.267881   7.727948
H   9.320013   6.995399   9.040128
C   8.404796   7.525071   9.112467
F   7.403099   6.404528   9.168211
F   9.342349   9.299668   10.466680
F   7.101313   8.964078   10.513568
C   8.374320   8.301331   10.472714
H   9.433935   6.926770   11.815552
F   7.429585   6.415527   11.836062
C   8.470329   7.401605   11.786806
F   7.164055   8.984570   13.151070
F   9.375886   9.368683   12.908099
C   8.438139   8.355583   13.058403
H   9.702507   7.063427   14.255986
C   8.724146   7.471789   14.293407
F   7.763759   6.382040   14.436334
F   7.498082   9.087437   15.740220
F   9.777112   9.389020   15.619211
C   8.721731   8.393218   15.642659
H   8.217586   6.693919   16.816553
H   9.835991   6.883787   16.637816
C   8.951943   7.444860   16.803149
F   7.887651   8.938138   18.369265
F   10.157603   8.969822   18.231550
C   9.004315   8.119782   18.225198
H   8.256081   6.467225   19.367861
H   9.932791   6.527819   19.251781
C   9.077517   7.156559   19.441196
F   8.094092   8.698477   21.023869
F   10.338793   8.834851   20.782542
C   9.210108   7.941159   20.813996
H   8.388803   6.607257   22.268380
H   10.027364   6.188352   21.733271
C   9.354445   7.027813   22.013017
F   9.841541   8.995392   23.421856
F   11.404693   7.426701   23.331049
C   10.028577   7.622413   23.349229
H   9.079997   6.029917   24.499421
H   8.633541   7.649911   24.975584
C   9.473672   7.047651   24.676658
F   11.183454   8.252331   25.831555
F   11.301395   5.955949   25.792805
C   10.411343   7.106832   25.904841
C   9.723881   7.043062   27.321846
H   8.869101   6.444229   27.171353
H   9.360251   8.006216   27.637919
C   10.568719   6.415893   28.468386
F   11.907556   6.832854   28.371749
F   10.583465   5.082712   28.326318
H   9.172143   6.350345   30.079288
C   10.053824   6.868421   29.877550
H   9.858514   7.912712   29.828183
F   12.122858   7.544147   31.005579
F   11.489188   5.413687   31.158296
C   10.976972   6.679008   31.125086
H   9.272291   6.445510   32.430320
C   10.229038   6.933934   32.494781
H   10.057665   7.960463   32.559732
C   10.928873   6.384369   33.763660
F   12.219399   6.859580   33.723132
F   10.923332   4.996661   33.617311
H   10.036376   7.848506   35.090392
H   9.276880   6.242223   35.172888
C   10.246128   6.799045   35.098614
F   11.500108   5.277695   36.420234
F   12.260331   7.398052   36.352954
C   11.093075   6.585329   36.368530
C   10.207264   6.870494   37.660062
H   9.396685   6.177023   37.584976
H   9.808951   7.831113   37.573690
C   11.004712   6.682066   38.960113
F   11.629417   5.445033   38.981005
F   12.047050   7.671639   39.079982
C   10.095180   6.790454   40.262363
H   9.333771   7.516213   40.043250
H   9.624234   5.874082   40.434609
F   12.152845   6.732688   41.642845
C   10.825277   7.210105   41.591495
F   10.839812   8.602091   41.634878
H   9.084049   6.972136   42.791000
C   10.078213   6.670260   42.835969
H   10.143211   5.605659   42.858907
F   12.057719   7.057158   44.304647
C   10.619692   7.246976   44.246773
F   10.391918   8.660316   44.327130
C   10.041017   6.629217   45.451474
H   9.265524   5.888498   45.369306
C   10.415279   6.961920   46.723477
F   11.456392   7.790281   46.932336
H   6.088318   4.068974   48.858807
C   5.278733   4.474071   48.320725
H   4.545010   3.715775   48.051825
C   4.628623   5.478832   49.315984
F   3.429411   6.010802   48.747561
F   5.481461   6.550637   49.591725
F   3.384274   3.491042   50.274988
C   4.264346   4.689294   50.633455
H   5.232787   4.259071   50.878943
C   3.684026   5.408432   51.839454
F   2.367641   5.799019   51.500358
F   4.394766   6.629412   52.052944
C   3.714513   4.538528   53.171331
F   2.654739   3.574656   53.072157
H   4.685468   4.047086   53.270136
F   2.250682   6.032299   54.350181
F   4.419534   6.487868   54.542396
C   3.483846   5.431597   54.474635
H   4.513390   4.009961   55.850524
C   3.590479   4.541105   55.736684
F   2.505382   3.472383   55.737735
F   4.378351   6.422624   57.033224
F   2.177469   5.910795   57.169962
C   3.484244   5.355751   57.092169
H   4.762679   4.201768   58.368650
F   2.795439   3.394312   58.566450
C   3.731772   4.572737   58.426733
F   2.499305   5.998633   59.901568
F   4.627870   6.413055   59.667200
C   3.707462   5.400577   59.789406
H   4.942680   4.215367   61.118293
C   3.985936   4.613747   61.096983
F   3.133767   3.365853   61.212818
F   2.526345   5.931631   62.541977
F   4.702751   6.561291   62.362613
C   3.818175   5.440687   62.429099
H   3.377594   3.961544   63.865406
H   5.025795   4.054721   63.498441
C   4.170547   4.648126   63.683701
F   3.274509   6.367268   65.121177
F   5.478720   6.124908   65.094304
C   4.278687   5.418958   65.050729
H   3.467316   3.818248   66.288555
H   5.176455   4.066582   66.366125
C   4.207676   4.583672   66.373808
F   2.749266   6.097194   67.590092
F   4.948669   6.403258   67.698004
C   3.970843   5.434521   67.671948
H   3.025912   4.112490   69.099344
H   4.766352   3.884291   69.053562
C   3.959234   4.625156   69.014963
F   2.973652   6.353478   70.403400
F   5.248397   6.253822   70.289870
C   4.087833   5.484160   70.320116
H   4.767797   3.771552   71.441081
H   3.091544   4.139353   71.690506
C   4.058748   4.604695   71.579905
F   3.760640   6.466898   73.036048
F   5.785123   5.563088   72.912416
C   4.450868   5.268620   72.959935
C   4.178999   4.438096   74.250179
H   4.941845   3.725231   74.254890
H   3.234368   3.833263   74.136578
C   4.154320   5.285811   75.550919
F   2.939579   6.018916   75.706216
F   5.197975   6.200070   75.505865
H   5.263578   3.868910   76.683618
C   4.347215   4.430424   76.823482
H   3.567219   3.670259   76.925580
F   3.288810   6.135412   78.223888
F   5.559736   6.130525   78.017838
C   4.441782   5.313738   78.130964
H   5.346647   3.766317   79.356867
C   4.543832   4.480435   79.433182
H   3.671057   3.955344   79.533497
C   4.697683   5.370214   80.697793
F   3.657078   6.223030   80.771240
F   5.816654   6.146971   80.501948
H   3.966372   3.945213   82.171935
H   5.675815   4.062049   82.092419
C   4.823873   4.639648   82.066699
F   6.017716   6.403970   83.245842
F   3.800727   6.520279   83.334752
C   4.919976   5.600096   83.331004
C   4.925374   4.822672   84.684915
H   5.777691   4.246817   84.740541
H   4.158325   4.145954   84.585217
C   4.842947   5.668918   85.978151
F   5.819405   6.661541   85.853129
F   3.607476   6.342303   85.960650
C   5.009054   4.995610   87.375539
H   4.265705   4.216799   87.571070
H   5.939154   4.402738   87.320092
F   6.321168   6.605082   88.642934
C   5.124267   5.868964   88.727198
F   4.044802   6.803273   88.684851
H   3.977924   5.034374   90.192421
C   5.051420   5.039018   89.996593
H   5.373251   3.974957   89.776361
F   7.149414   5.076990   91.074060
C   5.869976   5.461259   91.238872
F   5.887823   6.880588   91.313209
H   4.359531   4.845603   92.402298
C   5.388087   4.993486   92.622346
H   5.839439   4.040241   92.764671
Cl   6.766695   6.609826   93.751576
C   5.545609   5.967731   93.788304
F   4.576918   6.961979   93.641509
H   10.456231   5.629726   48.396388
C   9.765101   6.250663   47.870430
H   8.974551   5.597733   47.478827
C   9.238242   7.337929   48.923388
F   8.173253   8.088085   48.384776
F   10.299502   8.216458   49.202232
F   7.841590   5.445643   50.033246
C   8.813129   6.590194   50.249957
H   9.625796   6.035124   50.640343
C   8.345083   7.486859   51.407959
F   7.082736   8.076584   51.135417
F   9.191887   8.605261   51.487128
C   8.311076   6.692389   52.792830
F   7.325656   5.620768   52.756077
H   9.169724   6.091292   52.874335
F   6.736057   8.107700   54.042665
F   8.912158   8.637933   54.100623
C   8.064059   7.546488   54.119585
H   9.111795   6.259273   55.445049
C   8.163772   6.772937   55.448924
F   7.211427   5.578878   55.485534
F   8.890288   8.715761   56.747066
F   6.692592   8.143406   56.783648
C   8.012888   7.608281   56.764240
H   9.256368   6.484497   58.081945
F   7.499599   5.548556   58.145930
C   8.257928   6.873278   58.090989
F   6.923925   8.140091   59.524529
F   9.129133   8.681491   59.463490
C   8.195822   7.621623   59.471703
H   9.287314   6.316630   60.859654
C   8.350710   6.762682   60.775841
F   7.355298   5.670002   60.866220
F   6.903470   8.312389   62.115157
F   9.155795   8.635003   62.078606
C   8.193888   7.665735   62.093018
H   7.479481   6.291167   63.589246
H   9.206760   6.205628   63.242728
C   8.337761   6.859490   63.365377
F   7.666242   8.785992   64.692342
F   9.898189   8.325729   64.576295
C   8.617713   7.703952   64.658550
H   7.677076   6.407155   66.005160
H   9.369606   6.208521   65.975870
C   8.591827   6.949785   66.012049
F   7.752892   8.848704   67.232758
F   9.921992   8.251842   67.437045
C   8.599230   7.795150   67.340097
H   7.353573   6.544968   68.669411
H   8.956905   6.213031   68.818464
C   8.266804   7.055794   68.662839
F   7.052639   8.630303   70.051908
F   9.308386   8.883147   69.850705
C   8.322602   7.941428   69.953152
H   9.340851   6.336821   71.088855
H   7.644836   6.554663   71.567331
C   8.522078   7.046709   71.249820
F   7.997152   9.094286   72.430386
F   10.147096   8.302259   72.470957
C   8.774862   7.906254   72.518814
C   8.464236   7.181942   73.889710
H   9.106976   6.361604   73.992975
H   7.451257   6.797698   73.945391
C   8.649474   8.117769   75.107848
F   7.572169   9.033842   75.126868
F   9.825183   8.893235   74.905395
H   9.313680   6.436284   76.352724
C   8.695587   7.317537   76.478780
H   7.768822   6.821613   76.544986
F   8.113226   9.094864   77.886359
F   10.318891   8.741405   77.532626
C   9.054003   8.076703   77.722071
H   9.833490   6.449922   79.015187
C   9.046676   7.178768   79.059647
H   8.120260   6.621634   79.101572
C   9.219006   8.027303   80.341491
F   8.072617   8.804413   80.457005
F   10.327178   8.872146   80.188144
H   8.525830   6.545952   81.696130
H   10.336900   6.584549   81.547340
C   9.417229   7.194655   81.673389
F   10.758842   8.641588   83.088999
F   8.530075   8.971432   83.081700
C   9.515491   7.959616   83.021949
C   9.409988   7.106414   84.328438
H   10.214246   6.378364   84.374853
H   8.539130   6.509786   84.392871
C   9.456122   7.894180   85.696195
F   10.544832   8.775818   85.707857
F   8.309866   8.619155   85.786657
C   9.595477   7.016994   86.971844
H   8.686430   6.470103   87.044958
H   10.332515   6.372298   86.792533
F   11.117831   8.441378   88.221424
C   9.867222   7.851112   88.298926
F   8.945497   8.862601   88.391781
H   8.785237   6.683078   89.717243
C   9.777288   6.931119   89.553696
H   10.206299   5.945425   89.355284
F   11.628898   7.043524   91.073463
C   10.344773   7.478327   90.933459
F   10.439152   8.836484   90.877305
H   8.475095   7.182155   92.074382
C   9.583521   7.121591   92.263616
H   9.807550   6.116800   92.463948
Cl   11.122269   8.518973   93.461337
C   9.821150   7.935383   93.554025
F   8.967844   9.080513   93.516676
H   6.247724   4.777208   95.491993
C   5.360287   5.295936   95.218764
H   4.492138   4.553647   95.037099
C   5.000444   6.152792   96.431720
F   3.699482   6.561536   96.222615
F   5.841020   7.247710   96.533328
F   4.134943   4.153290   97.672579
C   5.066489   5.319526   97.809404
H   6.080182   4.925549   97.911427
C   4.789323   6.183731   99.062551
F   3.511032   6.806678   98.953781
F   5.733080   7.218610   99.102260
C   4.861020   5.338971   100.403287
F   3.999012   4.133991   100.302756
H   5.841026   4.841969   100.417573
F   3.216182   6.675648   101.543682
F   5.474679   7.294850   101.721250
C   4.531490   6.171506   101.680001
H   5.528441   4.953170   103.206268
C   4.543379   5.362753   103.009603
F   3.600272   4.214673   102.897582
F   5.115593   7.360841   104.393819
F   2.907760   6.729547   104.171820
C   4.197866   6.226742   104.291141
H   5.230422   4.948836   105.632616
F   3.287265   4.278289   105.630628
C   4.291268   5.428744   105.636582
F   2.912030   6.860976   106.990455
F   5.145716   7.150111   107.053577
C   4.139981   6.178243   106.950203
H   5.023459   4.516552   108.289753
C   4.214735   5.196248   108.228373
F   3.109361   4.314090   108.128633
F   2.864211   6.572408   109.851701
F   5.107727   6.932618   109.655788
C   4.137213   5.978721   109.619614
H   3.971632   4.046351   110.446348
H   5.417048   4.896096   110.962739
C   4.324924   5.003774   110.776130
F   2.309874   5.018649   112.060512
F   3.716697   6.766380   112.292280
C   3.664983   5.374503   112.166582
H   4.593985   3.793354   113.268904
H   5.123225   5.303693   113.760171
C   4.231537   4.750192   113.504017
F   2.429792   3.777892   114.629433
F   2.556677   5.958402   114.775676
C   3.273658   4.808296   114.778835
H   4.364244   3.652652   116.232785
H   4.857310   5.331131   116.321679
C   4.027438   4.678145   116.137915
F   2.118955   4.012663   117.318732
F   2.527818   6.203746   117.359943
C   3.117177   4.907390   117.398194
H   4.777649   5.315018   118.615334
H   4.065252   3.673930   118.945404
C   3.883291   4.709450   118.734571
F   1.939270   4.511417   120.062557
F   2.943841   6.562620   119.896075
C   3.169553   5.206475   120.005326
C   3.978454   4.874368   121.316304
H   5.015727   5.208720   121.185819
H   4.075437   3.784296   121.380488
C   3.341265   5.371478   122.634627
F   1.992506   4.935880   122.701618
F   3.313358   6.774044   122.561158
H   4.907558   5.599051   123.955909
C   4.081951   4.968776   123.926049
H   4.343243   3.926592   123.799309
F   2.196505   4.206666   125.288621
F   2.856790   6.363395   125.542003
C   3.340234   5.049679   125.292853
H   5.225739   5.106804   126.374418
C   4.218428   4.676880   126.478994
H   4.361635   3.599002   126.433790
C   3.674305   5.224752   127.884880
F   2.427572   4.782187   128.060488
F   3.638757   6.639284   127.887666
H   4.724417   3.701852   128.993828
H   5.496383   5.190855   128.819411
C   4.546532   4.771239   129.045027
F   4.060745   6.770495   130.496350
F   2.752540   4.915745   130.575929
C   4.062887   5.299000   130.449366
C   4.836842   4.783080   131.687246
H   5.876257   4.637940   131.427881
H   4.429725   3.846372   131.879235
C   4.780174   5.632908   133.011582
F   5.828526   6.550649   132.945484
F   3.577293   6.368125   133.004732
C   4.870495   4.854235   134.371605
H   4.013109   4.235716   134.435587
H   5.735211   4.263675   134.210739
F   6.397331   6.311711   135.447027
C   5.178365   5.672783   135.644483
F   4.162386   6.628329   135.810304
H   4.269026   4.433249   137.226165
C   5.265274   4.787794   136.939639
H   5.884001   3.899017   136.613323
F   7.191159   5.121565   138.362316
C   5.858972   5.492320   138.207756
F   5.748399   6.945657   138.094687
H   3.994513   4.831222   139.193244
C   5.057639   5.016178   139.448798
H   5.495610   4.089155   139.699956
Cl   6.453715   6.221791   140.960959
C   5.125736   5.890672   140.742955
F   4.411489   7.135322   140.540013
H   10.424369   6.523124   94.980483
C   9.644646   7.256782   94.910946
H   8.743984   6.771015   94.924909
C   9.695155   8.211587   96.151985
F   8.750640   9.209910   96.049092
F   10.952710   8.888245   96.237744
F   8.387573   6.411620   97.426483
C   9.451684   7.450116   97.539926
H   10.306415   6.753775   97.640955
C   9.259766   8.298403   98.829965
F   8.017234   8.956602   98.650225
F   10.263575   9.244718   98.884843
C   9.244519   7.419399   100.140493
F   8.193587   6.317827   100.083739
H   10.134699   6.922736   100.213524
F   7.717273   8.872444   101.343101
F   9.944892   9.272911   101.370621
C   9.038840   8.281673   101.398424
H   10.126694   7.197539   102.886195
C   9.140499   7.494348   102.781930
F   8.349023   6.204482   102.668003
F   9.713755   9.405817   104.125617
F   7.497656   8.836590   103.917883
C   8.810232   8.288779   104.048487
H   9.911777   6.912667   105.414106
F   7.846201   6.463345   105.396662
C   8.891663   7.445952   105.384688
F   7.398297   8.813754   106.784724
F   9.654022   9.389970   106.665771
C   8.765979   8.305489   106.723930
H   10.058655   7.085341   107.905732
C   9.032012   7.485872   108.000677
F   8.273864   6.215514   108.075615
F   7.553446   8.884438   109.371615
F   9.752070   9.332177   109.451197
C   8.818716   8.276452   109.411809
H   8.630039   6.431457   110.463431
H   9.914700   7.387724   110.866917
C   8.922772   7.452561   110.677279
F   6.974612   7.829298   111.944100
F   8.537883   9.395716   111.986201
C   8.327695   8.041402   111.996218
H   8.632844   6.456308   113.257291
H   9.845498   7.656727   113.364584
C   8.829901   7.490563   113.383031
F   6.876218   7.412476   114.726532
F   7.997470   9.353238   114.603962
C   8.128208   7.977849   114.665832
H   9.453885   6.674427   115.864158
H   9.681020   8.268530   116.105491
C   8.913345   7.564455   115.995044
F   7.147205   6.471188   117.187324
F   7.372292   8.680895   117.378601
C   8.068559   7.463888   117.302569
H   9.186176   8.165031   118.926903
H   9.680387   6.592277   118.614417
C   8.840181   7.208153   118.666095
F   7.909491   5.323652   119.913108
F   6.737350   7.287665   119.901996
C   8.038161   6.684307   119.903880
C   8.766556   7.093493   121.265876
H   9.024370   8.153047   121.160283
H   9.705961   6.523814   121.321448
C   7.978764   6.876545   122.578638
F   7.652484   5.524052   122.619434
F   6.808002   7.620646   122.525556
H   9.382867   7.970828   123.764617
C   8.754937   7.170308   123.901216
H   9.411292   6.317808   124.083224
F   6.711959   6.880636   125.145688
F   7.737380   8.843879   125.236863
C   7.957458   7.494164   125.226167
H   9.688189   7.396337   126.450022
C   8.650840   7.136511   126.599187
H   8.677855   6.088363   126.781605
C   8.001441   7.769043   127.856012
F   6.664166   7.375735   127.940460
F   8.006895   9.131163   127.729821
H   8.758465   6.335226   129.301374
H   9.766419   7.596062   128.999480
C   8.778644   7.390561   129.135341
F   8.683878   9.363584   130.473784
F   6.939275   7.911786   130.699903
C   8.320207   7.992129   130.505461
C   9.028970   7.369098   131.699063
H   10.005755   7.005573   131.402528
H   8.443768   6.543028   132.033602
C   9.128560   8.338210   132.965694
F   10.179243   9.263674   132.725158
F   7.979088   9.149523   133.102592
C   9.352778   7.574148   134.270388
H   8.522619   6.943330   134.479947
H   10.229889   6.982458   134.041043
F   10.989530   8.796382   135.601087
C   9.645185   8.331955   135.652884
F   8.873375   9.466741   135.777749
H   8.365595   7.279611   137.013339
C   9.436660   7.439546   136.852424
H   9.883856   6.505898   136.734565
F   11.484849   7.806742   138.126702
C   10.117221   8.047768   138.213216
F   9.964573   9.451526   138.270233
H   8.491588   7.249408   139.327365
C   9.556673   7.414915   139.512630
H   9.918395   6.475218   139.754639
Cl   10.767209   8.972748   140.878693
C   9.561172   8.265940   140.787950
F   8.568912   9.236672   140.678288
