138
Lattice="   32.0000000    0.00000000    0.00000000    0.00000000    18.0000000    0.00000000    0.00000000    0.00000000    58.0000000"
H   28.5248097086   9.72628531707   53.5325258752
C   27.7553839894   9.31009861348   52.8739395791
H   26.7789070206   9.39683187949   53.3612745397
H   27.9767384247   8.25419757105   52.6873431355
C   27.7610792699   10.0855836845   51.5735022022
F   29.0284465450   10.0106478817   51.0274483715
F   27.5370815512   11.4197864301   51.8615775610
C   26.7223648910   9.58305551771   50.5623401929
H   25.7393217549   9.66560554851   51.0415177670
H   26.9169541133   8.51522023398   50.4035732418
C   26.6608652883   10.2789891728   49.1947423334
F   27.8752001579   10.1447662763   48.5625751428
F   26.4471829930   11.6238467624   49.3734663268
C   25.5522111318   9.69583358683   48.2962545189
H   24.5954990315   9.78638351011   48.8242723961
H   25.7660295319   8.62953255315   48.1567867660
C   25.3914000086   10.3441127232   46.9134336054
F   26.5888218632   10.2738119221   46.2433700659
F   25.1003208805   11.6778437387   47.0687752618
C   24.2882849814   9.68769843087   46.0539379617
H   23.3238971636   9.78457141037   46.5660801921
H   24.5055310966   8.61759018738   45.9510855240
C   24.1559871982   10.2986698052   44.6521028948
F   25.3403711298   10.1546045214   43.9741312330
F   23.8865315243   11.6323627311   44.7661972720
C   23.0652284739   9.63303311211   43.7653623754
F   21.8579439333   9.63516154705   44.4640071424
H   23.3525969676   8.58673592449   43.5844797218
C   22.8604022403   10.3202387605   42.3810769554
F   24.0678498594   10.2559930436   41.7346427920
F   22.5590527672   11.6377359124   42.5655410282
C   21.7732950337   9.66481717253   41.5159553219
H   20.8165589467   9.76017943649   42.0419645200
H   22.0032061801   8.59833199631   41.4042449477
C   21.6458316815   10.2843010298   40.1114944908
F   22.8463160860   10.1450014128   39.4559129360
F   21.4111749863   11.6315396439   40.2425271746
C   20.5273810859   9.65899610948   39.2534944591
H   19.5734045710   9.78570395012   39.7800992509
H   20.7121681325   8.58357427716   39.1456832116
C   20.4007912862   10.2769471817   37.8501487026
F   21.5813524986   10.1277830211   37.1813592038
F   20.1453765047   11.6185531863   37.9613575714
C   19.2519248210   9.65936839531   36.9952759309
H   18.3022514514   9.79312753223   37.5339694592
F   19.4943867998   8.29098907358   36.8721008811
C   19.0838058157   10.2838334977   35.5768459470
F   20.2866358341   10.2710339848   34.9328945247
F   18.7303062813   11.5954869917   35.7775104761
C   18.0133647602   9.59775631099   34.7055594210
H   17.0467851220   9.66227353245   35.2203503646
H   18.2663027743   8.53667469883   34.5949588971
C   17.8614367673   10.2332199189   33.3087276754
F   19.0575237560   10.1228188044   32.6409290425
F   17.6060823125   11.5752263032   33.4617136018
C   16.7487646469   9.60574095509   32.4447017252
H   15.7972657495   9.66035774430   32.9853136432
H   16.9856381281   8.54752411684   32.2771615937
C   16.5736543833   10.2776447063   31.0725562107
F   17.7526595910   10.2111435709   30.3760075936
F   16.2670175470   11.5959870896   31.2456143259
C   15.4809586137   9.60527439563   30.1854604645
F   14.2721998907   9.63815227958   30.8816061197
H   15.7542663382   8.55161893456   30.0237665921
C   15.2887034331   10.2632269036   28.7893699345
F   16.4888043247   10.1445025782   28.1415222840
F   15.0438750922   11.6141600862   28.9656132369
C   14.1613388476   9.70603414960   27.9600711352
H   13.2598021127   9.41585054520   28.4922912400
C   14.1368151115   9.74646297537   26.6193954602
F   15.2187013404   10.1507038599   25.9332250372
C   12.9411509477   9.52589310687   25.7333776838
H   12.1094324683   9.11469465405   26.3162479319
H   12.6261788678   10.5080269956   25.3552631891
C   13.1758958927   8.63757287571   24.5046591733
F   14.2297231570   9.12032761456   23.7897544719
F   13.5005101628   7.36320207443   24.9224616086
C   11.9175096167   8.51523635200   23.5877375167
H   11.1737444277   7.91133866951   24.1284942376
F   11.3739155036   9.78581637109   23.3841393539
C   12.1692670624   7.88481225597   22.1863311788
F   13.1290863222   8.60901677559   21.5424723235
F   12.6648992958   6.62235882056   22.4015951059
C   10.9005591782   7.82981609505   21.3162731902
H   10.1368842105   7.24847253421   21.8465817043
H   10.5323334538   8.85573319913   21.2024148099
C   11.1010359941   7.20018854136   19.9250575031
F   12.1060538141   7.86816928422   19.2711866568
F   11.5250233877   5.90218238792   20.0949217809
C   9.83068299994   7.20384036922   19.0441815890
H   9.04360568959   6.63314420185   19.5506196407
H   9.48344573180   8.23956270718   18.9415763742
C   10.0346472095   6.60792311376   17.6376692725
F   10.9953173254   7.32589863570   16.9701594799
F   10.4721435200   5.31808934712   17.7496331080
C   8.76031048260   6.63199832108   16.7351902747
F   7.71289516789   6.00982367951   17.4169364306
H   8.47910000006   7.68153034278   16.5642168958
C   8.93770210741   5.95030250703   15.3387471370
F   9.92680331390   6.64587676367   14.6923114357
F   9.37487694979   4.66722444873   15.5059825598
C   7.66294362285   5.94552114964   14.4754741433
H   6.88658712719   5.38406670556   15.0066931431
H   7.31619375237   6.97830916633   14.3482516291
C   7.85375735816   5.32957446514   13.0741041618
F   8.82461710185   6.03530819317   12.4069304370
F   8.31483437605   4.04096197304   13.2098118656
C   6.56742439848   5.31433564982   12.2196814415
H   5.80197371235   4.73874555680   12.7539508330
H   6.19910037167   6.34093937647   12.1107273498
C   6.75637290713   4.70359402958   10.8187454395
F   7.70531119506   5.41272318632   10.1419826521
F   7.19604357747   3.40786143440   10.9395607236
C   5.45933933764   4.65013258395   9.95494675210
H   4.70802549916   4.04499179329   10.4841283102
F   4.96168869639   5.94628117564   9.82288684084
C   5.65745477978   4.04548506771   8.53037960827
F   6.64054377762   4.73933270485   7.88780060341
F   6.09113992641   2.75333094436   8.70093361376
C   4.38724735022   4.04576430868   7.66678920419
H   3.60773454242   3.46664055920   8.17740515068
H   4.03032783260   5.07707380502   7.56584453336
C   4.58809371929   3.45154948287   6.25912994730
F   5.55122414306   4.17207707932   5.59436866009
F   5.05859999761   2.16437531793   6.37190623159
C   3.29954097616   3.45253830069   5.42540946156
H   2.52519395699   2.89715746729   5.96707688355
H   2.95867614938   4.49091041980   5.32593817243
C   3.41122079807   2.84871024030   4.01816623095
F   4.33293276857   3.53228432996   3.26169513328
F   3.81818768927   1.54665830150   4.08865505855
C   2.07202317945   2.93952821686   3.24996443642
F   1.07206746452   2.33523786422   4.01527355459
H   1.81971003271   4.00462614349   3.13571890713
C   2.01052521438   2.29566943470   1.85227511300
F   2.85119697621   2.93999835853  0.985662035563
F   2.35638977446  0.979539173685   1.88593032759
H  0.982451525897   2.37388233232   1.46228320825
