138
Lattice="   32.0000000    0.00000000    0.00000000    0.00000000    18.0000000    0.00000000    0.00000000    0.00000000    58.0000000"
H   28.5255217606   9.72642731816   53.5328178606
C   27.7558344294   9.31038641141   52.8741720287
H   26.7788168765   9.39711270552   53.3609164018
H   27.9767604182   8.25420741580   52.6870213006
C   27.7611405608   10.0853023567   51.5730281734
F   29.0283586445   10.0109334461   51.0270452080
F   27.5375049040   11.4202241850   51.8615616154
C   26.7224211282   9.58326917293   50.5619322941
H   25.7402784473   9.66495016096   51.0418907103
H   26.9171911140   8.51506946097   50.4050145352
C   26.6609443995   10.2786342349   49.1942853374
F   27.8753088202   10.1455774488   48.5628441566
F   26.4478885748   11.6240828051   49.3734285088
C   25.5523234253   9.69610587931   48.2963575762
H   24.5957848036   9.78655180082   48.8233605881
H   25.7667866641   8.62969168358   48.1570672055
C   25.3911959386   10.3431591887   46.9139132152
F   26.5885487589   10.2739038477   46.2439486299
F   25.1001624174   11.6775371365   47.0681120640
C   24.2881132723   9.68766588497   46.0543686608
H   23.3234218102   9.78347690945   46.5655688358
H   24.5046978632   8.61725906470   45.9514242042
C   24.1561140335   10.2984774856   44.6523432598
F   25.3400427107   10.1544969592   43.9741848601
F   23.8860650591   11.6328580642   44.7660241275
C   23.0653793435   9.63282203073   43.7655092784
F   21.8590112241   9.63457012711   44.4648982758
H   23.3520206038   8.58680888377   43.5839339188
C   22.8600264175   10.3192851702   42.3813636226
F   24.0670333584   10.2558476739   41.7354025492
F   22.5605686732   11.6376266573   42.5652066404
C   21.7733534600   9.66485005577   41.5157616133
H   20.8172580547   9.76032524904   42.0419536086
H   22.0033599591   8.59829620258   41.4040527104
C   21.6461904972   10.2844354473   40.1114166115
F   22.8469197785   10.1456417800   39.4561660760
F   21.4106331323   11.6322015063   40.2427702338
C   20.5276783263   9.65873246670   39.2533917838
H   19.5734177674   9.78497818581   39.7800599540
H   20.7115127988   8.58318682509   39.1460483738
C   20.4004350126   10.2765316372   37.8503267545
F   21.5806873252   10.1283013749   37.1815832434
F   20.1458597539   11.6188262995   37.9614002467
C   19.2521350784   9.65883260362   36.9953649656
H   18.3022495077   9.79325171896   37.5334206896
F   19.4946775884   8.29098990452   36.8722107736
C   19.0839243539   10.2833819836   35.5768347609
F   20.2866465373   10.2709601755   34.9326070682
F   18.7307879943   11.5959032283   35.7763243731
C   18.0135207593   9.59734520813   34.7053879856
H   17.0459843808   9.66190915909   35.2195730400
H   18.2654793173   8.53641213074   34.5950989468
C   17.8616012262   10.2334701949   33.3086074174
F   19.0576737475   10.1226823413   32.6410527447
F   17.6062006323   11.5762531364   33.4619446740
C   16.7489374835   9.60552922830   32.4442729364
H   15.7972326765   9.65988680846   32.9855286360
H   16.9851086626   8.54800545716   32.2763660969
C   16.5729234515   10.2770788166   31.0723332102
F   17.7514815116   10.2113869668   30.3761049813
F   16.2679061201   11.5961845023   31.2454578777
C   15.4813385087   9.60495320464   30.1845745792
F   14.2735746280   9.63816278506   30.8815601737
H   15.7540273303   8.55119800230   30.0238109750
C   15.2887874575   10.2633220145   28.7892410874
F   16.4890531233   10.1444478475   28.1418444740
F   15.0438257104   11.6150340905   28.9667015723
C   14.1615810674   9.70537788657   27.9597258028
H   13.2592984251   9.41640507842   28.4923651913
C   14.1376155907   9.74656976296   26.6200810151
F   15.2204832988   10.1496870582   25.9334205001
C   12.9412957115   9.52521406826   25.7335932636
H   12.1084819903   9.11433272681   26.3156357919
H   12.6268842796   10.5071721040   25.3554280569
C   13.1755337325   8.63679550105   24.5044273154
F   14.2288794480   9.12144364929   23.7895075584
F   13.5007100042   7.36325389670   24.9222438313
C   11.9173507440   8.51486087898   23.5875279447
H   11.1738514000   7.91203790616   24.1294675098
F   11.3732717181   9.78557671775   23.3833483594
C   12.1692409431   7.88441353440   22.1861831015
F   13.1292348490   8.60870760263   21.5424530215
F   12.6652939877   6.62309650016   22.4012593574
C   10.9009453800   7.83023339048   21.3164745097
H   10.1376383108   7.24875481058   21.8458050145
H   10.5323602215   8.85587962761   21.2027703441
C   11.1007124871   7.20034206178   19.9253369173
F   12.1061456508   7.86811279418   19.2713745542
F   11.5247504232   5.90321797498   20.0943709773
C   9.83058610496   7.20414574958   19.0443726178
H   9.04334572409   6.63358862064   19.5505955602
H   9.48333188650   8.23981293344   18.9422233059
C   10.0344559247   6.60742548124   17.6377898639
F   10.9952242606   7.32638542391   16.9709583467
F   10.4714421221   5.31798026140   17.7496315515
C   8.76014048605   6.63194830613   16.7354583380
F   7.71311939109   6.01087102063   17.4180953264
H   8.47895347190   7.68136542874   16.5638784684
C   8.93730589426   5.94991653490   15.3392234181
F   9.92620707975   6.64570023117   14.6928801397
F   9.37523981167   4.66790355209   15.5056596694
C   7.66319445418   5.94585421042   14.4757990926
H   6.88725266274   5.38419940674   15.0059262877
H   7.31597003499   6.97827226902   14.3475103343
C   7.85375117509   5.32940050024   13.0745483973
F   8.82497253054   6.03495896235   12.4074978373
F   8.31481096886   4.04163924086   13.2097476952
C   6.56765470499   5.31455335926   12.2197269202
H   5.80230056358   4.73971934623   12.7537950365
H   6.19843197029   6.34100146994   12.1118996581
C   6.75584310500   4.70316345958   10.8185523502
F   7.70510446511   5.41239560836   10.1421807379
F   7.19551873873   3.40810587452   10.9387725426
C   5.45917178952   4.65001480373   9.95493051985
H   4.70803231174   4.04499405420   10.4838360088
F   4.96248712994   5.94703875462   9.82242958646
C   5.65717184388   4.04475551764   8.53057108970
F   6.63985741778   4.73983751499   7.88801325985
F   6.09144490428   2.75336999946   8.70033106142
C   4.38708336174   4.04563459264   7.66689671622
H   3.60714879726   3.46690508212   8.17664866240
H   4.02989534198   5.07669685833   7.56559317865
C   4.58758722012   3.45109795110   6.25941093239
F   5.55075991238   4.17179901868   5.59474483745
F   5.05876727370   2.16503360764   6.37231380330
C   3.29929088275   3.45251488328   5.42540525960
H   2.52529810437   2.89771492571   5.96711063720
H   2.95857560400   4.49114166500   5.32622942172
C   3.41101614335   2.84794592459   4.01812047093
F   4.33281042832   3.53226467944   3.26190271588
F   3.81774129943   1.54632821947   4.08917017432
C   2.07178382034   2.93941847589   3.24998706614
F   1.07211429326   2.33490561040   4.01508076056
H   1.81988935572   4.00496384813   3.13599524220
C   2.01055971878   2.29571759525   1.85183478541
F   2.85119422693   2.94017312657  0.985060512150
F   2.35631059145  0.978474321018   1.88554478174
H  0.982498923197   2.37479607765   1.46200318872
