1032
Lattice="8.000000 0.000000 0.000000 0.000000 70.000000 0.000000 0.000000 0.000000 45.990000 "
H   1.154857   0.018621   0.928602
C   1.488831   -0.989895   1.171602
C   1.206755   -2.129600   0.344905
H   4.905934   -4.260325   3.532521
H   2.604605   -0.290104   2.864775
H   5.697394   -1.942492   3.038929
C   2.337878   -1.144913   2.237715
C   1.730969   -3.427404   0.657153
H   1.488970   -4.316288   0.043543
C   2.937957   -2.442465   2.539793
C   4.175352   -3.881321   4.259783
C   2.598642   -3.600109   1.747830
H   4.674149   -3.890953   5.272962
C   4.957651   -1.493469   3.741678
H   3.328309   -4.663906   4.383221
H   3.000873   -4.520764   2.074890
C   3.666117   -2.439704   3.835429
H   4.669677   -0.515772   3.452640
H   5.529820   -1.410732   4.697081
C   2.707473   -2.018585   4.892896
H   1.284166   -3.660731   4.337437
H   3.732977   -0.153541   5.585323
C   1.488708   -2.787829   4.988756
C   2.866796   -0.848212   5.728479
C   0.491013   -2.485969   5.946844
C   1.864471   -0.476848   6.601375
H   -0.365959   -3.154685   6.040631
H   1.949895   0.424312   7.146857
C   0.627476   -1.239897   6.685138
O   -0.304604   -0.861918   7.601202
H   1.769915   -2.244064   8.530377
C   -0.325131   -1.578123   8.685869
C   0.926241   -2.254824   9.131157
H   -2.419637   -1.100043   9.171347
C   -1.509279   -1.687007   9.476357
C   0.998749   -2.903428   10.356099
H   1.941433   -3.337864   10.653276
C   -1.480949   -2.396078   10.679455
C   -0.187871   -3.010295   11.192530
C   -2.588821   -2.696262   11.659676
O   -3.690825   -2.313075   11.507413
C   -0.434121   -3.663723   12.463535
N   -1.937645   -3.399905   12.871551
O   0.340653   -4.258940   13.126302
H   -4.482826   -3.400102   13.739044
C   -2.410782   -3.399068   14.243036
C   -3.811167   -3.473006   14.551423
H   -0.470190   -3.410004   15.139640
C   -1.533043   -3.533468   15.321827
C   -4.291518   -3.809305   15.786947
H   -5.368167   -3.941299   15.975923
C   -1.928624   -3.841566   16.633731
C   -3.336515   -3.996768   16.817131
O   0.800041   -2.347042   16.668659
N   -0.897566   -3.871807   17.675721
H   -3.705291   -4.338071   17.786197
C   0.276886   -2.815692   17.620517
O   -2.076503   -4.737985   19.587807
C   -1.362429   -3.895306   19.142890
C   0.482320   -2.241286   18.986209
C   -0.539042   -2.916132   19.894813
H   2.164643   -0.859717   18.819186
C   1.398381   -1.275541   19.478686
C   -0.754589   -2.326722   21.157816
H   -1.570982   -2.696573   21.717859
C   1.158927   -0.804174   20.793243
C   0.103668   -1.280143   21.619216
H   1.858669   -0.012371   21.244786
H   0.625460   1.731801   21.851381
O   -0.174415   -0.867247   22.851744
C   0.915179   1.403420   22.807286
C   0.291249   0.228374   23.418526
H   2.169160   3.171345   23.102815
H   4.413902   1.003851   25.734830
H   4.380739   3.347309   24.310435
C   1.773669   2.212450   23.511591
C   0.484452   -0.021842   24.811921
H   -0.021508   -0.830444   25.271483
C   3.925021   1.668847   26.463788
C   2.023740   1.919914   24.881101
C   3.676805   3.794803   25.013846
H   4.726927   2.164492   27.016338
C   1.329976   0.818953   25.530561
H   3.055318   4.506741   24.385658
H   3.415883   1.016383   27.229816
H   4.301970   4.435116   25.699620
C   2.888045   2.684166   25.785923
H   1.534340   0.641279   26.572717
C   2.110980   3.382817   26.843104
H   0.087124   2.906739   25.964480
H   3.855198   4.006491   27.933628
C   0.643042   3.278467   26.835017
C   2.750896   3.988800   27.957542
C   -0.056987   3.622226   27.961402
C   2.023987   4.350030   29.081222
H   -1.157946   3.465388   27.917482
H   2.578615   4.737985   29.924888
C   0.599308   4.098412   29.138911
O   -0.200525   4.378366   30.151166
H   1.951504   3.056204   31.196676
C   -0.066982   3.863140   31.347980
C   1.099842   3.134416   31.851503
H   -2.068954   4.639611   31.860752
C   -1.230741   4.011551   32.151498
C   1.026390   2.514328   33.050102
H   1.906129   1.952149   33.420642
C   -1.334223   3.355243   33.402081
C   -0.118534   2.701075   33.922302
C   -2.379361   3.327453   34.529869
O   -3.520412   3.624813   34.403912
C   -0.367936   2.202756   35.329835
N   -1.766430   2.644831   35.784383
O   0.268382   1.342010   35.792912
C   -2.527433   2.000930   36.874612
H   -0.841547   1.937732   38.096284
H   -4.424212   1.924822   35.983092
C   -1.877143   1.662539   38.072149
C   -3.945570   1.717180   36.890915
C   -2.465358   1.101640   39.204080
C   -4.604807   1.219666   37.999462
H   -5.697394   1.037339   37.968734
O   -3.299751   -0.560190   41.778210
C   -3.887735   0.869985   39.153306
N   -1.683876   0.755786   40.423168
C   -2.199511   -0.135652   41.554690
O   0.451538   1.967011   40.381465
C   -0.255705   1.157170   40.891223
H   -4.447253   0.429367   39.930102
C   -1.066112   -0.402453   42.533484
C   0.080072   0.513877   42.207198
H   -1.695844   -2.070287   43.803694
C   -0.910846   -1.330168   43.575420
C   1.211900   0.605801   43.079559
H   2.089907   1.224447   42.857488
C   0.266052   -1.217330   44.371239
C   1.336692   -0.251881   44.126382
O   0.448219   -2.210479   45.238540
H   2.253653   -0.293970   44.707099
H   1.154857   8.018621   0.928602
C   1.488831   7.010105   1.171602
C   1.206755   5.870400   0.344905
H   4.905934   3.739675   3.532521
H   2.604605   7.709896   2.864775
H   5.697394   6.057508   3.038929
C   2.337878   6.855087   2.237715
C   1.730969   4.572596   0.657153
H   1.488970   3.683712   0.043543
C   2.937957   5.557535   2.539793
C   4.175352   4.118679   4.259783
C   2.598642   4.399891   1.747830
H   4.674149   4.109047   5.272962
C   4.957651   6.506531   3.741678
H   3.328309   3.336094   4.383221
H   3.000873   3.479236   2.074890
C   3.666117   5.560296   3.835429
H   4.669677   7.484228   3.452640
H   5.529820   6.589268   4.697081
C   2.707473   5.981415   4.892896
H   1.284166   4.339269   4.337437
H   3.732977   7.846459   5.585323
C   1.488708   5.212171   4.988756
C   2.866796   7.151788   5.728479
C   0.491013   5.514031   5.946844
C   1.864471   7.523152   6.601375
H   -0.365959   4.845315   6.040631
H   1.949895   8.424312   7.146857
C   0.627476   6.760103   6.685138
O   -0.304604   7.138082   7.601202
H   1.769915   5.755936   8.530377
C   -0.325131   6.421877   8.685869
C   0.926241   5.745176   9.131157
H   -2.419637   6.899957   9.171347
C   -1.509279   6.312993   9.476357
C   0.998749   5.096572   10.356099
H   1.941433   4.662136   10.653276
C   -1.480949   5.603922   10.679455
C   -0.187871   4.989705   11.192530
C   -2.588821   5.303738   11.659676
O   -3.690825   5.686925   11.507413
C   -0.434121   4.336277   12.463535
N   -1.937645   4.600095   12.871551
O   0.340653   3.741060   13.126302
H   -4.482826   4.599898   13.739044
C   -2.410782   4.600932   14.243036
C   -3.811167   4.526994   14.551423
H   -0.470190   4.589996   15.139640
C   -1.533043   4.466532   15.321827
C   -4.291518   4.190695   15.786947
H   -5.368167   4.058701   15.975923
C   -1.928624   4.158434   16.633731
C   -3.336515   4.003232   16.817131
O   0.800041   5.652958   16.668659
N   -0.897566   4.128193   17.675721
H   -3.705291   3.661929   17.786197
C   0.276886   5.184308   17.620517
O   -2.076503   3.262015   19.587807
C   -1.362429   4.104694   19.142890
C   0.482320   5.758714   18.986209
C   -0.539042   5.083868   19.894813
H   2.164643   7.140283   18.819186
C   1.398381   6.724459   19.478686
C   -0.754589   5.673278   21.157816
H   -1.570982   5.303427   21.717859
C   1.158927   7.195826   20.793243
C   0.103668   6.719857   21.619216
H   1.858669   7.987629   21.244786
H   0.625460   9.731801   21.851381
O   -0.174415   7.132753   22.851744
C   0.915179   9.403420   22.807286
C   0.291249   8.228374   23.418526
H   2.169160   11.171345   23.102815
H   4.413902   9.003851   25.734830
H   4.380739   11.347309   24.310435
C   1.773669   10.212450   23.511591
C   0.484452   7.978158   24.811921
H   -0.021508   7.169556   25.271483
C   3.925021   9.668847   26.463788
C   2.023740   9.919914   24.881101
C   3.676805   11.794803   25.013846
H   4.726927   10.164492   27.016338
C   1.329976   8.818953   25.530561
H   3.055318   12.506741   24.385658
H   3.415883   9.016383   27.229816
H   4.301970   12.435116   25.699620
C   2.888045   10.684166   25.785923
H   1.534340   8.641279   26.572717
C   2.110980   11.382817   26.843104
H   0.087124   10.906739   25.964480
H   3.855198   12.006491   27.933628
C   0.643042   11.278467   26.835017
C   2.750896   11.988800   27.957542
C   -0.056987   11.622226   27.961402
C   2.023987   12.350030   29.081222
H   -1.157946   11.465388   27.917482
H   2.578615   12.737985   29.924888
C   0.599308   12.098412   29.138911
O   -0.200525   12.378366   30.151166
H   1.951504   11.056204   31.196676
C   -0.066982   11.863140   31.347980
C   1.099842   11.134416   31.851503
H   -2.068954   12.639611   31.860752
C   -1.230741   12.011551   32.151498
C   1.026390   10.514328   33.050102
H   1.906129   9.952149   33.420642
C   -1.334223   11.355243   33.402081
C   -0.118534   10.701075   33.922302
C   -2.379361   11.327453   34.529869
O   -3.520412   11.624813   34.403912
C   -0.367936   10.202756   35.329835
N   -1.766430   10.644831   35.784383
O   0.268382   9.342010   35.792912
C   -2.527433   10.000930   36.874612
H   -0.841547   9.937732   38.096284
H   -4.424212   9.924822   35.983092
C   -1.877143   9.662539   38.072149
C   -3.945570   9.717180   36.890915
C   -2.465358   9.101640   39.204080
C   -4.604807   9.219666   37.999462
H   -5.697394   9.037339   37.968734
O   -3.299751   7.439810   41.778210
C   -3.887735   8.869985   39.153306
N   -1.683876   8.755786   40.423168
C   -2.199511   7.864348   41.554690
O   0.451538   9.967011   40.381465
C   -0.255705   9.157170   40.891223
H   -4.447253   8.429367   39.930102
C   -1.066112   7.597547   42.533484
C   0.080072   8.513877   42.207198
H   -1.695844   5.929713   43.803694
C   -0.910846   6.669832   43.575420
C   1.211900   8.605801   43.079559
H   2.089907   9.224447   42.857488
C   0.266052   6.782670   44.371239
C   1.336692   7.748119   44.126382
O   0.448219   5.789521   45.238540
H   2.253653   7.706030   44.707099
C   2.009989   20.239998   4.883560
C   2.615116   21.302638   4.192026
C   3.134522   21.119791   2.879349
C   3.121958   19.838882   2.342486
C   1.868951   18.991311   4.260761
C   2.458419   18.795703   2.988819
C   3.785427   19.351868   1.077579
N   3.293400   17.911946   0.862359
C   0.654546   15.058065   21.005406
H   2.746456   22.244346   4.731864
H   3.573512   21.937733   2.315653
H   1.359569   18.189146   4.791898
O   1.775886   16.615327   2.268010
C   2.444949   17.606895   2.069729
O   4.482452   19.988728   0.313186
C   1.555497   20.436717   6.284470
C   1.160077   21.703807   6.724234
C   0.691846   21.926006   8.052100
C   0.646291   20.840888   8.907676
C   1.524369   19.349352   7.181942
C   1.062271   19.594063   8.480771
C   0.161439   20.739444   10.320945
N   0.358343   19.410912   10.688847
O   -0.343234   21.593786   11.045747
H   1.183662   22.524761   6.000671
H   0.347660   22.884467   8.410686
H   1.846811   18.358024   6.900464
O   1.128720   17.460753   9.622982
C   0.887722   18.650970   9.611478
C   0.741709   16.272836   21.686245
H   1.412434   22.969625   41.156789
H   0.073716   13.632072   17.729617
C   -0.255881   17.443367   17.427601
C   -0.792898   16.622421   16.416661
C   -0.662780   15.254614   16.492967
C   -0.021197   14.699121   17.624223
C   0.506518   15.512193   18.646142
C   0.395586   16.888092   18.551941
C   2.864814   18.068049   44.143199
H   0.012142   13.026485   21.047165
O   1.195813   14.893982   19.706483
H   -2.909394   18.410229   13.717078
C   -1.876299   18.378394   13.417870
C   -1.429246   18.953536   12.219793
H   -1.094967   13.289126   23.378162
C   -0.085194   18.873033   11.927207
O   -1.589155   17.164197   15.397260
C   0.812769   18.242525   12.784377
H   1.846794   18.194213   12.476051
C   0.367087   17.653513   13.994368
H   1.053834   17.129721   14.663946
C   -0.985272   17.731967   14.286738
H   -1.089915   14.626238   15.695524
H   -0.367012   18.512377   17.349210
C   0.116926   16.409752   22.946855
C   -0.538061   15.319287   23.500417
H   0.110426   17.355485   23.490561
C   -0.559356   14.091830   22.878216
H   0.802743   17.535152   19.339457
C   0.048310   13.958704   21.603101
H   -2.098129   19.465697   11.521376
C   -2.680272   18.210255   28.130679
C   -3.669675   18.529816   27.173099
C   -3.766043   17.866818   25.925505
C   -2.827750   16.909289   25.693590
C   -1.761271   17.199067   27.909758
C   -1.850811   16.580719   26.654837
C   -2.529004   16.279853   24.379761
N   -1.357790   15.549062   24.638737
C   2.495423   19.108997   43.262372
H   -4.347553   19.332474   27.408302
H   -4.482452   18.108017   25.126757
H   -0.949875   17.001712   28.622163
O   0.163606   15.277628   26.461566
C   -0.874945   15.711173   25.994447
O   -3.085573   16.416336   23.265515
H   -3.937519   21.748502   35.099700
C   -2.542852   19.042349   29.330186
C   -2.557714   20.414069   29.112475
C   -2.440990   21.280149   30.215127
C   -2.330974   20.707050   31.496111
C   -2.399412   18.467835   30.637334
C   -2.312495   19.343080   31.714090
C   -2.233539   21.387505   32.818511
N   -2.186351   20.363694   33.800738
O   -2.197730   22.585305   33.024431
H   -2.639128   20.797472   28.065926
H   -2.441803   22.348271   30.107455
H   -2.407581   17.400663   30.805103
O   -2.190954   18.044385   33.825745
C   -2.221162   19.098922   33.202694
C   1.973036   20.299105   43.773036
O   1.798644   21.362915   42.926523
H   -0.222855   19.458472   42.992901
C   -0.328726   22.182124   40.107257
C   -1.264319   21.163659   40.181611
C   -1.215558   20.190124   41.186163
C   -0.225013   20.206303   42.182915
C   0.710218   21.223271   42.091708
C   0.656342   22.206288   41.090611
H   1.622654   19.554456   46.986398
H   3.389825   17.240364   43.654691
H   2.652300   19.062098   42.145598
H   -3.931895   22.176157   37.670819
C   -3.182696   21.570278   37.175487
C   -3.178747   21.345619   35.773719
C   -2.175739   20.570774   35.219204
O   -2.383731   21.168568   39.368144
C   -1.183180   20.000109   36.012543
H   -0.446951   19.371668   35.518164
C   -1.184841   20.219343   37.427116
H   -0.425114   19.785279   38.080901
C   -2.202713   20.991946   37.985442
H   -2.003382   19.457952   41.205555
H   -0.373528   22.973515   39.348762
C   1.587086   20.417300   45.127326
C   1.754509   19.315358   45.914579
H   1.400214   21.349614   45.670625
C   2.538808   18.215849   45.557890
H   1.258075   17.107348   21.232156
C   2.009989   28.239998   4.883560
C   2.615116   29.302638   4.192026
C   3.134522   29.119791   2.879349
C   3.121958   27.838882   2.342486
C   1.868951   26.991311   4.260761
C   2.458419   26.795703   2.988819
C   3.785427   27.351868   1.077579
N   3.293400   25.911946   0.862359
C   0.654546   23.058065   21.005406
H   2.746456   30.244346   4.731864
H   3.573512   29.937733   2.315653
H   1.359569   26.189146   4.791898
O   1.775886   24.615327   2.268010
C   2.444949   25.606895   2.069729
O   4.482452   27.988728   0.313186
C   1.555497   28.436717   6.284470
C   1.160077   29.703807   6.724234
C   0.691846   29.926006   8.052100
C   0.646291   28.840888   8.907676
C   1.524369   27.349352   7.181942
C   1.062271   27.594063   8.480771
C   0.161439   28.739444   10.320945
N   0.358343   27.410912   10.688847
O   -0.343234   29.593786   11.045747
H   1.183662   30.524761   6.000671
H   0.347660   30.884467   8.410686
H   1.846811   26.358024   6.900464
O   1.128720   25.460753   9.622982
C   0.887722   26.650970   9.611478
C   0.741709   24.272836   21.686245
H   1.412434   30.969625   41.156789
H   0.073716   21.632072   17.729617
C   -0.255881   25.443367   17.427601
C   -0.792898   24.622421   16.416661
C   -0.662780   23.254614   16.492967
C   -0.021197   22.699121   17.624223
C   0.506518   23.512193   18.646142
C   0.395586   24.888092   18.551941
C   2.864814   26.068049   44.143199
H   0.012142   21.026485   21.047165
O   1.195813   22.893982   19.706483
H   -2.909394   26.410229   13.717078
C   -1.876299   26.378394   13.417870
C   -1.429246   26.953536   12.219793
H   -1.094967   21.289126   23.378162
C   -0.085194   26.873033   11.927207
O   -1.589155   25.164197   15.397260
C   0.812769   26.242525   12.784377
H   1.846794   26.194213   12.476051
C   0.367087   25.653513   13.994368
H   1.053834   25.129721   14.663946
C   -0.985272   25.731967   14.286738
H   -1.089915   22.626238   15.695524
H   -0.367012   26.512377   17.349210
C   0.116926   24.409752   22.946855
C   -0.538061   23.319287   23.500417
H   0.110426   25.355485   23.490561
C   -0.559356   22.091830   22.878216
H   0.802743   25.535152   19.339457
C   0.048310   21.958704   21.603101
H   -2.098129   27.465697   11.521376
C   -2.680272   26.210255   28.130679
C   -3.669675   26.529816   27.173099
C   -3.766043   25.866818   25.925505
C   -2.827750   24.909289   25.693590
C   -1.761271   25.199067   27.909758
C   -1.850811   24.580719   26.654837
C   -2.529004   24.279853   24.379761
N   -1.357790   23.549062   24.638737
C   2.495423   27.108997   43.262372
H   -4.347553   27.332474   27.408302
H   -4.482452   26.108017   25.126757
H   -0.949875   25.001712   28.622163
O   0.163606   23.277628   26.461566
C   -0.874945   23.711173   25.994447
O   -3.085573   24.416336   23.265515
H   -3.937519   29.748502   35.099700
C   -2.542852   27.042349   29.330186
C   -2.557714   28.414069   29.112475
C   -2.440990   29.280149   30.215127
C   -2.330974   28.707050   31.496111
C   -2.399412   26.467835   30.637334
C   -2.312495   27.343080   31.714090
C   -2.233539   29.387505   32.818511
N   -2.186351   28.363694   33.800738
O   -2.197730   30.585305   33.024431
H   -2.639128   28.797472   28.065926
H   -2.441803   30.348271   30.107455
H   -2.407581   25.400663   30.805103
O   -2.190954   26.044385   33.825745
C   -2.221162   27.098922   33.202694
C   1.973036   28.299105   43.773036
O   1.798644   29.362915   42.926523
H   -0.222855   27.458472   42.992901
C   -0.328726   30.182124   40.107257
C   -1.264319   29.163659   40.181611
C   -1.215558   28.190124   41.186163
C   -0.225013   28.206303   42.182915
C   0.710218   29.223271   42.091708
C   0.656342   30.206288   41.090611
H   1.622654   27.554456   46.986398
H   3.389825   25.240364   43.654691
H   2.652300   27.062098   42.145598
H   -3.931895   30.176157   37.670819
C   -3.182696   29.570278   37.175487
C   -3.178747   29.345619   35.773719
C   -2.175739   28.570774   35.219204
O   -2.383731   29.168568   39.368144
C   -1.183180   28.000109   36.012543
H   -0.446951   27.371668   35.518164
C   -1.184841   28.219343   37.427116
H   -0.425114   27.785279   38.080901
C   -2.202713   28.991946   37.985442
H   -2.003382   27.457952   41.205555
H   -0.373528   30.973515   39.348762
C   1.587086   28.417300   45.127326
C   1.754509   27.315358   45.914579
H   1.400214   29.349614   45.670625
C   2.538808   26.215849   45.557890
H   1.258075   25.107348   21.232156
C   2.009989   36.239998   4.883560
C   2.615116   37.302638   4.192026
C   3.134522   37.119791   2.879349
C   3.121958   35.838882   2.342486
C   1.868951   34.991311   4.260761
C   2.458419   34.795703   2.988819
C   3.785427   35.351868   1.077579
N   3.293400   33.911946   0.862359
C   0.654546   31.058065   21.005406
H   2.746456   38.244346   4.731864
H   3.573512   37.937733   2.315653
H   1.359569   34.189146   4.791898
O   1.775886   32.615327   2.268010
C   2.444949   33.606895   2.069729
O   4.482452   35.988728   0.313186
C   1.555497   36.436717   6.284470
C   1.160077   37.703807   6.724234
C   0.691846   37.926006   8.052100
C   0.646291   36.840888   8.907676
C   1.524369   35.349352   7.181942
C   1.062271   35.594063   8.480771
C   0.161439   36.739444   10.320945
N   0.358343   35.410912   10.688847
O   -0.343234   37.593786   11.045747
H   1.183662   38.524761   6.000671
H   0.347660   38.884467   8.410686
H   1.846811   34.358024   6.900464
O   1.128720   33.460753   9.622982
C   0.887722   34.650970   9.611478
C   0.741709   32.272836   21.686245
H   1.412434   38.969625   41.156789
H   0.073716   29.632072   17.729617
C   -0.255881   33.443367   17.427601
C   -0.792898   32.622421   16.416661
C   -0.662780   31.254614   16.492967
C   -0.021197   30.699121   17.624223
C   0.506518   31.512193   18.646142
C   0.395586   32.888092   18.551941
C   2.864814   34.068049   44.143199
H   0.012142   29.026485   21.047165
O   1.195813   30.893982   19.706483
H   -2.909394   34.410229   13.717078
C   -1.876299   34.378394   13.417870
C   -1.429246   34.953536   12.219793
H   -1.094967   29.289126   23.378162
C   -0.085194   34.873033   11.927207
O   -1.589155   33.164197   15.397260
C   0.812769   34.242525   12.784377
H   1.846794   34.194213   12.476051
C   0.367087   33.653513   13.994368
H   1.053834   33.129721   14.663946
C   -0.985272   33.731967   14.286738
H   -1.089915   30.626238   15.695524
H   -0.367012   34.512377   17.349210
C   0.116926   32.409752   22.946855
C   -0.538061   31.319287   23.500417
H   0.110426   33.355485   23.490561
C   -0.559356   30.091830   22.878216
H   0.802743   33.535152   19.339457
C   0.048310   29.958704   21.603101
H   -2.098129   35.465697   11.521376
C   -2.680272   34.210255   28.130679
C   -3.669675   34.529816   27.173099
C   -3.766043   33.866818   25.925505
C   -2.827750   32.909289   25.693590
C   -1.761271   33.199067   27.909758
C   -1.850811   32.580719   26.654837
C   -2.529004   32.279853   24.379761
N   -1.357790   31.549062   24.638737
C   2.495423   35.108997   43.262372
H   -4.347553   35.332474   27.408302
H   -4.482452   34.108017   25.126757
H   -0.949875   33.001712   28.622163
O   0.163606   31.277628   26.461566
C   -0.874945   31.711173   25.994447
O   -3.085573   32.416336   23.265515
H   -3.937519   37.748502   35.099700
C   -2.542852   35.042349   29.330186
C   -2.557714   36.414069   29.112475
C   -2.440990   37.280149   30.215127
C   -2.330974   36.707050   31.496111
C   -2.399412   34.467835   30.637334
C   -2.312495   35.343080   31.714090
C   -2.233539   37.387505   32.818511
N   -2.186351   36.363694   33.800738
O   -2.197730   38.585305   33.024431
H   -2.639128   36.797472   28.065926
H   -2.441803   38.348271   30.107455
H   -2.407581   33.400663   30.805103
O   -2.190954   34.044385   33.825745
C   -2.221162   35.098922   33.202694
C   1.973036   36.299105   43.773036
O   1.798644   37.362915   42.926523
H   -0.222855   35.458472   42.992901
C   -0.328726   38.182124   40.107257
C   -1.264319   37.163659   40.181611
C   -1.215558   36.190124   41.186163
C   -0.225013   36.206303   42.182915
C   0.710218   37.223271   42.091708
C   0.656342   38.206288   41.090611
H   1.622654   35.554456   46.986398
H   3.389825   33.240364   43.654691
H   2.652300   35.062098   42.145598
H   -3.931895   38.176157   37.670819
C   -3.182696   37.570278   37.175487
C   -3.178747   37.345619   35.773719
C   -2.175739   36.570774   35.219204
O   -2.383731   37.168568   39.368144
C   -1.183180   36.000109   36.012543
H   -0.446951   35.371668   35.518164
C   -1.184841   36.219343   37.427116
H   -0.425114   35.785279   38.080901
C   -2.202713   36.991946   37.985442
H   -2.003382   35.457952   41.205555
H   -0.373528   38.973515   39.348762
C   1.587086   36.417300   45.127326
C   1.754509   35.315358   45.914579
H   1.400214   37.349614   45.670625
C   2.538808   34.215849   45.557890
H   1.258075   33.107348   21.232156
C   2.009989   44.239998   4.883560
C   2.615116   45.302638   4.192026
C   3.134522   45.119791   2.879349
C   3.121958   43.838882   2.342486
C   1.868951   42.991311   4.260761
C   2.458419   42.795703   2.988819
C   3.785427   43.351868   1.077579
N   3.293400   41.911946   0.862359
C   0.654546   39.058065   21.005406
H   2.746456   46.244346   4.731864
H   3.573512   45.937733   2.315653
H   1.359569   42.189146   4.791898
O   1.775886   40.615327   2.268010
C   2.444949   41.606895   2.069729
O   4.482452   43.988728   0.313186
C   1.555497   44.436717   6.284470
C   1.160077   45.703807   6.724234
C   0.691846   45.926006   8.052100
C   0.646291   44.840888   8.907676
C   1.524369   43.349352   7.181942
C   1.062271   43.594063   8.480771
C   0.161439   44.739444   10.320945
N   0.358343   43.410912   10.688847
O   -0.343234   45.593786   11.045747
H   1.183662   46.524761   6.000671
H   0.347660   46.884467   8.410686
H   1.846811   42.358024   6.900464
O   1.128720   41.460753   9.622982
C   0.887722   42.650970   9.611478
C   0.741709   40.272836   21.686245
H   1.412434   46.969625   41.156789
H   0.073716   37.632072   17.729617
C   -0.255881   41.443367   17.427601
C   -0.792898   40.622421   16.416661
C   -0.662780   39.254614   16.492967
C   -0.021197   38.699121   17.624223
C   0.506518   39.512193   18.646142
C   0.395586   40.888092   18.551941
C   2.864814   42.068049   44.143199
H   0.012142   37.026485   21.047165
O   1.195813   38.893982   19.706483
H   -2.909394   42.410229   13.717078
C   -1.876299   42.378394   13.417870
C   -1.429246   42.953536   12.219793
H   -1.094967   37.289126   23.378162
C   -0.085194   42.873033   11.927207
O   -1.589155   41.164197   15.397260
C   0.812769   42.242525   12.784377
H   1.846794   42.194213   12.476051
C   0.367087   41.653513   13.994368
H   1.053834   41.129721   14.663946
C   -0.985272   41.731967   14.286738
H   -1.089915   38.626238   15.695524
H   -0.367012   42.512377   17.349210
C   0.116926   40.409752   22.946855
C   -0.538061   39.319287   23.500417
H   0.110426   41.355485   23.490561
C   -0.559356   38.091830   22.878216
H   0.802743   41.535152   19.339457
C   0.048310   37.958704   21.603101
H   -2.098129   43.465697   11.521376
C   -2.680272   42.210255   28.130679
C   -3.669675   42.529816   27.173099
C   -3.766043   41.866818   25.925505
C   -2.827750   40.909289   25.693590
C   -1.761271   41.199067   27.909758
C   -1.850811   40.580719   26.654837
C   -2.529004   40.279853   24.379761
N   -1.357790   39.549062   24.638737
C   2.495423   43.108997   43.262372
H   -4.347553   43.332474   27.408302
H   -4.482452   42.108017   25.126757
H   -0.949875   41.001712   28.622163
O   0.163606   39.277628   26.461566
C   -0.874945   39.711173   25.994447
O   -3.085573   40.416336   23.265515
H   -3.937519   45.748502   35.099700
C   -2.542852   43.042349   29.330186
C   -2.557714   44.414069   29.112475
C   -2.440990   45.280149   30.215127
C   -2.330974   44.707050   31.496111
C   -2.399412   42.467835   30.637334
C   -2.312495   43.343080   31.714090
C   -2.233539   45.387505   32.818511
N   -2.186351   44.363694   33.800738
O   -2.197730   46.585305   33.024431
H   -2.639128   44.797472   28.065926
H   -2.441803   46.348271   30.107455
H   -2.407581   41.400663   30.805103
O   -2.190954   42.044385   33.825745
C   -2.221162   43.098922   33.202694
C   1.973036   44.299105   43.773036
O   1.798644   45.362915   42.926523
H   -0.222855   43.458472   42.992901
C   -0.328726   46.182124   40.107257
C   -1.264319   45.163659   40.181611
C   -1.215558   44.190124   41.186163
C   -0.225013   44.206303   42.182915
C   0.710218   45.223271   42.091708
C   0.656342   46.206288   41.090611
H   1.622654   43.554456   46.986398
H   3.389825   41.240364   43.654691
H   2.652300   43.062098   42.145598
H   -3.931895   46.176157   37.670819
C   -3.182696   45.570278   37.175487
C   -3.178747   45.345619   35.773719
C   -2.175739   44.570774   35.219204
O   -2.383731   45.168568   39.368144
C   -1.183180   44.000109   36.012543
H   -0.446951   43.371668   35.518164
C   -1.184841   44.219343   37.427116
H   -0.425114   43.785279   38.080901
C   -2.202713   44.991946   37.985442
H   -2.003382   43.457952   41.205555
H   -0.373528   46.973515   39.348762
C   1.587086   44.417300   45.127326
C   1.754509   43.315358   45.914579
H   1.400214   45.349614   45.670625
C   2.538808   42.215849   45.557890
H   1.258075   41.107348   21.232156
H   1.154857   52.018621   0.928602
C   1.488831   51.010105   1.171602
C   1.206755   49.870400   0.344905
H   4.905934   47.739675   3.532521
H   2.604605   51.709896   2.864775
H   5.697394   50.057508   3.038929
C   2.337878   50.855087   2.237715
C   1.730969   48.572596   0.657153
H   1.488970   47.683712   0.043543
C   2.937957   49.557535   2.539793
C   4.175352   48.118679   4.259783
C   2.598642   48.399891   1.747830
H   4.674149   48.109047   5.272962
C   4.957651   50.506531   3.741678
H   3.328309   47.336094   4.383221
H   3.000873   47.479236   2.074890
C   3.666117   49.560296   3.835429
H   4.669677   51.484228   3.452640
H   5.529820   50.589268   4.697081
C   2.707473   49.981415   4.892896
H   1.284166   48.339269   4.337437
H   3.732977   51.846459   5.585323
C   1.488708   49.212171   4.988756
C   2.866796   51.151788   5.728479
C   0.491013   49.514031   5.946844
C   1.864471   51.523152   6.601375
H   -0.365959   48.845315   6.040631
H   1.949895   52.424312   7.146857
C   0.627476   50.760103   6.685138
O   -0.304604   51.138082   7.601202
H   1.769915   49.755936   8.530377
C   -0.325131   50.421877   8.685869
C   0.926241   49.745176   9.131157
H   -2.419637   50.899957   9.171347
C   -1.509279   50.312993   9.476357
C   0.998749   49.096572   10.356099
H   1.941433   48.662136   10.653276
C   -1.480949   49.603922   10.679455
C   -0.187871   48.989705   11.192530
C   -2.588821   49.303738   11.659676
O   -3.690825   49.686925   11.507413
C   -0.434121   48.336277   12.463535
N   -1.937645   48.600095   12.871551
O   0.340653   47.741060   13.126302
H   -4.482826   48.599898   13.739044
C   -2.410782   48.600932   14.243036
C   -3.811167   48.526994   14.551423
H   -0.470190   48.589996   15.139640
C   -1.533043   48.466532   15.321827
C   -4.291518   48.190695   15.786947
H   -5.368167   48.058701   15.975923
C   -1.928624   48.158434   16.633731
C   -3.336515   48.003232   16.817131
O   0.800041   49.652958   16.668659
N   -0.897566   48.128193   17.675721
H   -3.705291   47.661929   17.786197
C   0.276886   49.184308   17.620517
O   -2.076503   47.262015   19.587807
C   -1.362429   48.104694   19.142890
C   0.482320   49.758714   18.986209
C   -0.539042   49.083868   19.894813
H   2.164643   51.140283   18.819186
C   1.398381   50.724459   19.478686
C   -0.754589   49.673278   21.157816
H   -1.570982   49.303427   21.717859
C   1.158927   51.195826   20.793243
C   0.103668   50.719857   21.619216
H   1.858669   51.987629   21.244786
H   0.625460   53.731801   21.851381
O   -0.174415   51.132753   22.851744
C   0.915179   53.403420   22.807286
C   0.291249   52.228374   23.418526
H   2.169160   55.171345   23.102815
H   4.413902   53.003851   25.734830
H   4.380739   55.347309   24.310435
C   1.773669   54.212450   23.511591
C   0.484452   51.978158   24.811921
H   -0.021508   51.169556   25.271483
C   3.925021   53.668847   26.463788
C   2.023740   53.919914   24.881101
C   3.676805   55.794803   25.013846
H   4.726927   54.164492   27.016338
C   1.329976   52.818953   25.530561
H   3.055318   56.506741   24.385658
H   3.415883   53.016383   27.229816
H   4.301970   56.435116   25.699620
C   2.888045   54.684166   25.785923
H   1.534340   52.641279   26.572717
C   2.110980   55.382817   26.843104
H   0.087124   54.906739   25.964480
H   3.855198   56.006491   27.933628
C   0.643042   55.278467   26.835017
C   2.750896   55.988800   27.957542
C   -0.056987   55.622226   27.961402
C   2.023987   56.350030   29.081222
H   -1.157946   55.465388   27.917482
H   2.578615   56.737985   29.924888
C   0.599308   56.098412   29.138911
O   -0.200525   56.378366   30.151166
H   1.951504   55.056204   31.196676
C   -0.066982   55.863140   31.347980
C   1.099842   55.134416   31.851503
H   -2.068954   56.639611   31.860752
C   -1.230741   56.011551   32.151498
C   1.026390   54.514328   33.050102
H   1.906129   53.952149   33.420642
C   -1.334223   55.355243   33.402081
C   -0.118534   54.701075   33.922302
C   -2.379361   55.327453   34.529869
O   -3.520412   55.624813   34.403912
C   -0.367936   54.202756   35.329835
N   -1.766430   54.644831   35.784383
O   0.268382   53.342010   35.792912
C   -2.527433   54.000930   36.874612
H   -0.841547   53.937732   38.096284
H   -4.424212   53.924822   35.983092
C   -1.877143   53.662539   38.072149
C   -3.945570   53.717180   36.890915
C   -2.465358   53.101640   39.204080
C   -4.604807   53.219666   37.999462
H   -5.697394   53.037339   37.968734
O   -3.299751   51.439810   41.778210
C   -3.887735   52.869985   39.153306
N   -1.683876   52.755786   40.423168
C   -2.199511   51.864348   41.554690
O   0.451538   53.967011   40.381465
C   -0.255705   53.157170   40.891223
H   -4.447253   52.429367   39.930102
C   -1.066112   51.597547   42.533484
C   0.080072   52.513877   42.207198
H   -1.695844   49.929713   43.803694
C   -0.910846   50.669832   43.575420
C   1.211900   52.605801   43.079559
H   2.089907   53.224447   42.857488
C   0.266052   50.782670   44.371239
C   1.336692   51.748119   44.126382
O   0.448219   49.789521   45.238540
H   2.253653   51.706030   44.707099
H   1.154857   60.018621   0.928602
C   1.488831   59.010105   1.171602
C   1.206755   57.870400   0.344905
H   4.905934   55.739675   3.532521
H   2.604605   59.709896   2.864775
H   5.697394   58.057508   3.038929
C   2.337878   58.855087   2.237715
C   1.730969   56.572596   0.657153
H   1.488970   55.683712   0.043543
C   2.937957   57.557535   2.539793
C   4.175352   56.118679   4.259783
C   2.598642   56.399891   1.747830
H   4.674149   56.109047   5.272962
C   4.957651   58.506531   3.741678
H   3.328309   55.336094   4.383221
H   3.000873   55.479236   2.074890
C   3.666117   57.560296   3.835429
H   4.669677   59.484228   3.452640
H   5.529820   58.589268   4.697081
C   2.707473   57.981415   4.892896
H   1.284166   56.339269   4.337437
H   3.732977   59.846459   5.585323
C   1.488708   57.212171   4.988756
C   2.866796   59.151788   5.728479
C   0.491013   57.514031   5.946844
C   1.864471   59.523152   6.601375
H   -0.365959   56.845315   6.040631
H   1.949895   60.424312   7.146857
C   0.627476   58.760103   6.685138
O   -0.304604   59.138082   7.601202
H   1.769915   57.755936   8.530377
C   -0.325131   58.421877   8.685869
C   0.926241   57.745176   9.131157
H   -2.419637   58.899957   9.171347
C   -1.509279   58.312993   9.476357
C   0.998749   57.096572   10.356099
H   1.941433   56.662136   10.653276
C   -1.480949   57.603922   10.679455
C   -0.187871   56.989705   11.192530
C   -2.588821   57.303738   11.659676
O   -3.690825   57.686925   11.507413
C   -0.434121   56.336277   12.463535
N   -1.937645   56.600095   12.871551
O   0.340653   55.741060   13.126302
H   -4.482826   56.599898   13.739044
C   -2.410782   56.600932   14.243036
C   -3.811167   56.526994   14.551423
H   -0.470190   56.589996   15.139640
C   -1.533043   56.466532   15.321827
C   -4.291518   56.190695   15.786947
H   -5.368167   56.058701   15.975923
C   -1.928624   56.158434   16.633731
C   -3.336515   56.003232   16.817131
O   0.800041   57.652958   16.668659
N   -0.897566   56.128193   17.675721
H   -3.705291   55.661929   17.786197
C   0.276886   57.184308   17.620517
O   -2.076503   55.262015   19.587807
C   -1.362429   56.104694   19.142890
C   0.482320   57.758714   18.986209
C   -0.539042   57.083868   19.894813
H   2.164643   59.140283   18.819186
C   1.398381   58.724459   19.478686
C   -0.754589   57.673278   21.157816
H   -1.570982   57.303427   21.717859
C   1.158927   59.195826   20.793243
C   0.103668   58.719857   21.619216
H   1.858669   59.987629   21.244786
H   0.625460   61.731801   21.851381
O   -0.174415   59.132753   22.851744
C   0.915179   61.403420   22.807286
C   0.291249   60.228374   23.418526
H   2.169160   63.171345   23.102815
H   4.413902   61.003851   25.734830
H   4.380739   63.347309   24.310435
C   1.773669   62.212450   23.511591
C   0.484452   59.978158   24.811921
H   -0.021508   59.169556   25.271483
C   3.925021   61.668847   26.463788
C   2.023740   61.919914   24.881101
C   3.676805   63.794803   25.013846
H   4.726927   62.164492   27.016338
C   1.329976   60.818953   25.530561
H   3.055318   64.506741   24.385658
H   3.415883   61.016383   27.229816
H   4.301970   64.435116   25.699620
C   2.888045   62.684166   25.785923
H   1.534340   60.641279   26.572717
C   2.110980   63.382817   26.843104
H   0.087124   62.906739   25.964480
H   3.855198   64.006491   27.933628
C   0.643042   63.278467   26.835017
C   2.750896   63.988800   27.957542
C   -0.056987   63.622226   27.961402
C   2.023987   64.350030   29.081222
H   -1.157946   63.465388   27.917482
H   2.578615   64.737985   29.924888
C   0.599308   64.098412   29.138911
O   -0.200525   64.378366   30.151166
H   1.951504   63.056204   31.196676
C   -0.066982   63.863140   31.347980
C   1.099842   63.134416   31.851503
H   -2.068954   64.639611   31.860752
C   -1.230741   64.011551   32.151498
C   1.026390   62.514328   33.050102
H   1.906129   61.952149   33.420642
C   -1.334223   63.355243   33.402081
C   -0.118534   62.701075   33.922302
C   -2.379361   63.327453   34.529869
O   -3.520412   63.624813   34.403912
C   -0.367936   62.202756   35.329835
N   -1.766430   62.644831   35.784383
O   0.268382   61.342010   35.792912
C   -2.527433   62.000930   36.874612
H   -0.841547   61.937732   38.096284
H   -4.424212   61.924822   35.983092
C   -1.877143   61.662539   38.072149
C   -3.945570   61.717180   36.890915
C   -2.465358   61.101640   39.204080
C   -4.604807   61.219666   37.999462
H   -5.697394   61.037339   37.968734
O   -3.299751   59.439810   41.778210
C   -3.887735   60.869985   39.153306
N   -1.683876   60.755786   40.423168
C   -2.199511   59.864348   41.554690
O   0.451538   61.967011   40.381465
C   -0.255705   61.157170   40.891223
H   -4.447253   60.429367   39.930102
C   -1.066112   59.597547   42.533484
C   0.080072   60.513877   42.207198
H   -1.695844   57.929713   43.803694
C   -0.910846   58.669832   43.575420
C   1.211900   60.605801   43.079559
H   2.089907   61.224447   42.857488
C   0.266052   58.782670   44.371239
C   1.336692   59.748119   44.126382
O   0.448219   57.789521   45.238540
H   2.253653   59.706030   44.707099
