644
Lattice="9.135237 0.0  0.0  0.000000 4.773361  0.0  0.000000 0.000000 142.078492"
C   0.026424   2.589603   -1.109794
C   4.255183   -0.414243   45.126769
C   0.095484   1.873884   0.314597
C   5.011225   4.656903   0.389925
Cl   1.149117   3.462994   -1.183853
F   7.940425   3.350505   -1.208303
Cl   5.173794   -1.445726   -2.091691
F   6.342651   0.581485   -2.371826
H   8.476803   1.116024   0.402235
H   1.060489   1.435727   0.376678
H   4.604442   3.668395   0.517175
H   6.061058   4.593804   0.307027
C   0.087608   2.753598   1.572420
C   4.638661   5.506740   1.609884
C   -0.012542   1.871545   2.904553
C   4.715627   4.666649   3.004556
F   1.268564   3.518087   1.641925
F   8.115075   3.596128   1.466367
F   5.464378   1.812902   1.712472
F   3.302468   1.215911   1.470892
F   8.058262   0.919137   2.819948
H   0.875848   1.366449   3.056032
F   3.792699   3.570113   2.939743
H   5.741623   4.518324   3.059551
C   -0.233990   2.808571   4.186230
C   4.441585   0.724183   4.319247
C   -0.157704   2.103061   5.556244
C   4.449576   4.728841   5.672114
F   0.640955   3.882708   4.163420
F   7.619136   3.335291   4.105758
F   5.408123   1.747114   4.460100
F   3.185127   1.311502   4.240332
F   7.987805   0.943368   5.635714
H   0.820250   1.651462   5.520289
F   3.434857   3.584196   5.582602
H   5.354130   4.208335   5.751081
C   -0.296466   2.999518   6.850109
C   4.279137   0.820536   6.967567
C   -0.183919   2.166857   8.199986
C   4.269937   4.719490   8.304386
F   0.652601   4.047737   6.773531
F   7.569705   3.626614   6.749165
F   5.312600   1.738191   7.026426
F   3.015334   1.472909   6.877277
F   7.943794   1.035445   8.198823
H   0.778646   1.637189   8.253189
F   3.068645   3.779283   8.240079
H   5.036036   4.013698   8.255348
C   -0.370936   3.039684   9.477237
C   4.226890   0.747436   9.583012
C   -0.174506   2.142677   10.775956
C   4.339769   4.639091   10.934492
F   0.570600   4.045690   9.406623
F   7.492719   3.633470   9.467615
F   5.288227   1.635048   9.576224
F   3.031369   1.465844   9.584621
F   7.896225   1.205830   10.880754
H   0.784023   1.602282   10.803305
F   3.346220   3.672327   10.911058
H   5.309766   4.119752   10.842257
C   -0.203174   3.052188   12.092698
C   4.306152   0.695943   12.299535
C   -0.028421   2.321000   13.434242
C   4.595149   4.585747   13.517599
F   0.809991   4.021717   11.961609
F   7.720649   3.752453   12.150052
F   5.259913   1.708290   12.243345
F   3.013745   1.296023   12.448505
F   8.124426   1.169987   13.566146
H   0.943344   1.910723   13.388253
F   3.563311   3.530737   13.663002
H   5.500813   4.071767   13.371916
C   -0.021081   3.192228   14.743351
C   4.728017   0.666680   14.905354
C   0.295397   2.374253   15.997600
C   4.994864   4.501106   16.087692
F   0.895647   4.222214   14.564722
F   7.856992   3.732242   14.858911
F   5.813478   1.596816   14.738302
F   3.566714   1.393353   15.090608
H   1.330650   2.083277   15.886514
H   8.756747   1.574568   16.002967
H   4.078709   3.900980   16.152699
H   5.825853   3.844889   15.963023
C   0.229927   3.125956   17.376301
C   5.214097   0.550149   17.431514
C   0.393872   2.120170   18.555889
C   4.999628   4.424508   18.686096
F   1.233787   4.116020   17.489946
F   8.159899   3.810951   17.483417
F   6.554752   1.044120   17.474889
F   4.336838   1.642412   17.476057
H   1.244106   1.466135   18.413713
H   8.703023   1.456196   18.575995
H   4.016933   4.087277   18.498369
H   5.687784   3.581432   18.797424
C   0.477902   2.785512   19.930947
C   4.914482   0.494544   20.004659
C   0.389835   1.882207   21.202672
C   4.979422   4.421858   21.293679
F   1.653032   3.507962   19.988283
F   8.605239   3.724793   20.003977
F   6.018372   1.384645   20.030629
F   3.761750   1.261555   19.976265
H   1.226768   1.231766   21.233261
H   8.743717   1.251398   21.079192
H   4.256210   3.636038   21.223395
H   5.903676   3.890645   21.246245
C   0.291419   2.699877   22.588256
C   4.871479   0.304869   22.745395
C   0.336079   1.810563   23.846036
C   5.041450   4.127969   23.972678
F   1.335051   3.552182   22.697716
F   8.221438   3.483353   22.633845
F   5.799340   1.265162   22.794176
F   3.593950   0.960410   22.876036
H   1.242050   1.212427   23.806953
H   8.640134   1.197070   23.863692
H   4.229458   3.438094   24.048041
H   5.979787   3.577805   23.826118
C   0.437842   2.611846   25.223585
C   5.118207   0.052337   25.352432
C   0.310962   1.738430   26.508198
C   4.835498   4.105028   26.710285
F   1.655779   3.302148   25.278029
F   8.564106   3.503993   25.290294
F   6.413127   0.619426   25.464313
F   4.214756   1.083529   25.335380
H   1.207844   1.238678   26.537144
H   8.682334   1.012268   26.438319
H   3.871307   3.670895   26.611280
H   5.621699   3.319703   26.833690
C   0.050283   2.543232   27.809290
C   4.845041   0.192103   28.019408
C   0.198026   1.671320   29.093997
C   4.671815   4.137373   29.345923
F   0.905385   3.616405   27.909459
F   7.890602   3.114839   27.796689
F   6.075635   0.837297   28.144631
F   3.866945   1.167004   27.960118
H   1.079015   1.091060   29.076087
H   8.514839   0.948107   29.097090
H   3.688140   3.858226   29.375038
H   5.308211   3.269334   29.279959
C   0.128302   2.466605   30.434273
C   4.956041   0.188433   30.632397
C   0.107489   1.667119   31.781493
C   4.758437   4.142204   31.964626
F   1.265922   3.342148   30.509425
F   8.063813   3.223766   30.425927
F   6.291176   0.670332   30.602702
F   4.115616   1.319887   30.629355
H   1.004966   1.056128   31.775315
H   8.331709   1.072873   31.739583
H   3.918378   3.533244   31.880505
H   5.606649   3.485720   31.979214
C   0.055181   2.436464   33.181206
C   4.758749   0.233809   33.237033
C   0.217292   1.616244   34.464446
C   4.881783   4.261535   34.593056
F   1.021156   3.410065   33.188762
F   7.906778   3.081609   33.216642
F   5.837862   1.151702   33.147073
F   3.558519   0.973913   33.228033
H   1.121476   0.959511   34.486951
H   8.525413   0.973965   34.580060
H   3.974019   3.611562   34.696627
H   5.640915   3.571809   34.594417
C   0.421227   2.382620   35.835501
C   4.964254   0.390024   35.856928
C   0.435111   1.614666   37.150544
C   4.967934   4.270432   37.132367
F   1.650084   3.165312   35.812581
F   8.516929   3.294382   35.929022
F   6.110837   1.131770   35.816407
F   3.827234   1.248487   35.895969
H   1.276027   1.040139   37.062752
H   8.695375   0.892343   37.194602
H   4.099589   3.607469   37.136178
H   5.854616   3.653520   37.021853
C   0.527784   2.405973   38.486984
C   5.004489   0.211762   38.537881
C   0.450125   1.501808   39.763176
C   4.936180   4.125706   39.817948
F   1.678572   3.201959   38.591908
F   8.543147   3.323064   38.543265
F   6.120791   0.983981   38.524679
F   3.903387   1.141718   38.554347
H   1.201130   0.739342   39.828456
H   8.685140   0.911931   39.684900
H   4.106756   3.525755   39.805494
H   5.783305   3.520407   39.807737
C   0.506997   2.286661   41.139285
C   4.737148   0.122305   41.165594
C   0.191566   1.564423   42.442758
C   4.622373   4.207918   42.555752
F   1.798081   2.874254   41.239290
F   8.761972   3.335792   41.029336
F   5.746828   1.098949   41.270976
F   3.569173   0.853739   41.019349
H   0.962164   0.812023   42.572278
H   8.421531   1.025549   42.394145
H   3.720026   3.754262   42.610773
H   5.448210   3.458774   42.643425
C   0.164205   2.511619   43.713141
C   4.647150   0.353417   43.811913
C   0.333689   1.828868   45.002488
C   4.391127   5.296513   -0.986417
F   1.204051   3.443158   43.612605
F   8.111580   3.190232   43.746394
F   5.936009   0.890029   43.922857
F   3.782128   1.461793   43.621175
H   9.663968   0.765630   44.962702
H   5.790798   5.408841   46.016615
C   0.039758   2.426653   46.165402
C   5.002343   -0.318937   92.260791
C   0.107012   1.569831   47.433663
C   4.723828   3.959671   47.459004
F   8.697543   3.648108   46.192052
F   3.065792   -1.097618   45.251691
H   8.603126   0.700001   47.258478
H   1.134416   1.186025   47.620406
H   3.998171   3.232365   47.300266
H   5.633631   3.555760   47.806525
C   -0.325506   2.374622   48.714807
C   4.312852   4.830906   48.687752
C   -0.377889   1.468797   50.012217
C   4.179617   3.923273   49.991098
F   0.530168   3.393425   48.879434
F   7.551082   2.888436   48.432978
F   5.300709   0.982978   48.847303
F   3.088891   0.657790   48.401874
F   7.780439   0.344287   49.919150
H   0.634116   1.047615   50.128656
F   3.287288   2.855966   49.787182
H   5.166597   3.470358   50.128980
C   -0.548548   2.276795   51.314970
C   3.758492   0.022387   51.296813
C   -0.549439   1.470764   52.662308
C   3.853525   3.993958   52.604792
F   0.421599   3.263878   51.423260
F   7.334055   2.873488   51.235450
F   4.599390   1.130449   51.381888
F   2.456311   0.436473   51.141754
F   7.540548   0.388836   52.590019
H   0.402288   0.980790   52.767035
F   2.793046   2.931790   52.709827
H   4.788354   3.480156   52.591817
C   -0.769211   2.312195   53.978786
C   3.777520   0.123885   53.913067
C   -0.636920   1.447876   55.275892
C   3.897176   4.059788   55.201516
F   0.130696   3.392936   54.002314
F   7.097709   2.801147   53.958907
F   4.764861   1.075664   53.820171
F   2.591427   0.789469   53.944546
F   7.461682   0.326250   55.199661
H   0.281396   0.981485   55.304134
F   2.815649   3.019496   55.229551
H   4.798335   3.498429   55.283973
C   -0.708411   2.263509   56.593180
C   3.836467   0.174432   56.561511
C   -0.545554   1.435689   57.929414
C   4.033840   4.197102   57.931033
F   0.321985   3.174908   56.550688
F   7.253363   2.975335   56.610325
F   4.778302   1.247937   56.491814
F   2.597326   0.810652   56.567521
F   7.592004   0.287511   57.912075
H   0.367312   0.968881   57.870112
F   3.109241   3.001838   57.957383
H   4.983493   3.726900   57.939966
C   -0.627402   2.222287   59.269646
C   4.031749   0.209026   59.296134
C   -0.455031   1.398348   60.583195
C   4.254233   4.208675   60.641995
F   0.428011   3.196871   59.249373
F   7.354104   2.985035   59.270444
F   5.060480   1.173632   59.226971
F   2.788996   0.862317   59.393692
F   7.490502   0.482267   60.682948
H   0.383282   0.790630   60.457004
F   3.261161   3.032684   60.645721
H   5.168036   3.720618   60.607648
C   -0.303931   2.324498   61.917627
C   4.215064   0.231131   61.985363
C   -0.130044   1.541914   63.264981
C   4.559134   4.170328   63.251892
F   0.751539   3.246307   61.764773
F   7.680891   3.026480   62.036025
F   5.117541   1.330112   61.928157
F   2.947827   0.745086   62.162651
H   0.675109   0.863739   63.127428
H   8.133716   0.898396   63.425890
H   3.762297   3.512408   63.388316
H   5.416724   3.585664   63.014476
C   0.118687   2.364933   64.579972
C   4.847830   0.190186   64.593714
C   0.205619   1.492891   65.893940
C   4.775913   4.099772   65.869262
F   1.357941   3.045263   64.374614
F   8.281816   3.288009   64.688653
F   6.087633   0.805328   64.520012
F   3.787227   1.187840   64.698962
H   0.899562   0.686437   65.730565
H   8.379038   1.072041   65.992315
H   3.881936   3.471168   65.873601
H   5.698830   3.495218   65.843012
C   0.487320   2.348638   67.156435
C   4.775934   0.024959   67.248036
C   0.442445   1.502327   68.483702
C   5.157944   4.012101   68.595950
F   1.732373   3.008606   67.045974
F   8.654040   3.363641   67.211702
F   5.643883   1.115483   67.143283
F   3.481471   0.560813   67.427703
H   1.200963   0.751215   68.479497
H   8.647504   0.920669   68.497817
H   4.345111   3.226445   68.664391
H   6.025528   3.435704   68.487224
C   0.582948   2.347990   69.753196
C   5.140489   0.025101   69.921163
C   0.655959   1.527857   71.099244
C   5.354067   4.050195   71.287042
F   1.740352   3.141427   69.700316
F   8.578017   3.224792   69.801534
F   6.108167   1.021808   69.833602
F   3.894444   0.683156   69.944915
H   1.655855   1.104116   71.140404
H   9.108654   0.734529   71.108990
H   4.545249   3.360046   71.478907
H   6.266501   3.487510   71.180360
C   0.550390   2.465170   72.341251
C   5.541813   0.202795   72.493110
C   0.593447   1.765458   73.745931
C   5.376796   4.317303   73.893682
F   1.548547   3.389552   72.360155
F   8.481220   3.190190   72.262977
F   6.874004   0.706117   72.422705
F   4.728212   1.287485   72.430938
H   1.482723   1.099457   73.723307
H   8.872067   1.150427   73.820238
H   4.497412   3.697213   73.764656
H   6.230807   3.725617   74.078871
C   0.564384   2.726265   74.983469
C   5.058552   0.439342   75.170192
C   0.433322   1.916537   76.304183
C   5.023083   4.434817   76.524352
F   1.712424   3.511575   75.016208
F   8.623538   3.615946   74.859478
F   5.987865   1.432201   75.225889
F   3.825180   1.054599   74.922444
H   1.195215   1.196103   76.309761
H   8.666742   1.302500   76.321363
H   4.256178   3.663931   76.602601
H   5.951350   3.939928   76.650634
C   0.412988   2.747937   77.638618
C   4.903647   0.465483   77.811177
C   0.417260   1.904979   79.013428
C   4.895231   4.480546   79.181671
F   1.594857   3.610586   77.641505
F   8.468866   3.526040   77.624612
F   5.933842   1.428133   77.779961
F   3.683048   1.196832   77.697343
H   1.401877   1.423010   79.056036
H   8.792460   1.177335   78.880231
H   3.984405   3.901312   79.269956
H   5.639011   3.677317   79.299328
C   0.152733   2.695798   80.313090
C   4.944015   0.534561   80.468928
C   0.253947   1.893159   81.649093
C   4.745920   4.393934   81.765906
F   1.036485   3.781663   80.402606
F   8.026783   3.256989   80.156390
F   6.183284   1.216664   80.580294
F   3.948732   1.461354   80.451029
H   1.258497   1.554919   81.808836
H   8.738620   1.085087   81.610251
H   3.814681   3.843173   81.641337
H   5.523402   3.716426   81.834707
C   -0.074954   2.829947   82.901283
C   4.579803   0.405004   83.062722
C   -0.077062   1.926498   84.199141
C   4.775123   4.418028   84.413423
F   0.914503   3.743341   83.066906
F   7.830541   3.554783   82.778778
F   5.471655   1.496417   83.081313
F   3.333471   0.965650   83.091860
H   0.780024   1.288826   84.131847
H   8.261138   1.206168   84.101639
H   4.018180   3.608251   84.552879
H   5.697474   3.954967   84.358821
C   0.006962   2.626176   85.561938
C   4.699936   0.490200   85.705205
C   -0.088103   1.596773   86.748212
C   4.820749   4.410145   87.055850
F   1.241991   3.284171   85.593254
F   8.209861   3.597036   85.660641
F   5.782101   1.463124   85.737592
F   3.433684   1.130795   85.688901
H   0.708928   0.948363   86.677361
H   8.070292   1.081997   86.746736
H   4.110462   3.612032   86.995527
H   5.731201   3.937592   87.159176
C   0.022157   2.225873   88.172371
C   4.536835   0.514186   88.328686
C   0.038459   1.266019   89.414360
C   5.178610   4.684565   89.608346
F   1.167425   3.018896   88.160505
F   8.064271   3.113933   88.244276
F   5.060531   1.800898   88.197531
F   3.148377   0.622141   88.510667
H   1.022518   0.757433   89.542094
H   8.459920   0.460394   89.239508
H   5.249718   3.663809   89.316473
H   6.105513   5.094799   89.861637
C   -0.260364   1.985204   90.783888
C   4.296844   0.049110   90.903042
C   0.054617   1.246232   92.135060
C   4.948703   4.710281   46.116872
F   0.509030   3.142608   90.864051
F   7.555505   2.378470   90.787611
F   3.792096   1.349035   90.947692
F   3.184872   -0.803172   90.718545
H   0.998398   0.747820   92.014510
H   8.567985   0.422138   92.267015
H   4.221414   5.825391   93.657083
H   3.070167   4.537916   93.121511
C   0.055756   2.073802   93.452866
C   5.044863   0.011751   139.810983
C   -0.085574   1.283466   94.827097
C   4.550247   4.189776   94.857809
Cl   1.249236   2.813547   93.438691
F   8.190316   2.992671   93.386213
Cl   5.344479   -1.705307   92.308125
F   6.179369   0.400304   92.414486
H   8.166127   0.690385   94.771741
H   0.687689   0.548958   94.859244
H   3.898172   3.341588   95.093099
H   5.553755   3.831095   94.816644
C   -0.190179   2.123356   96.122497
C   4.398161   5.118981   95.987686
C   -0.282881   1.287607   97.508107
C   4.485244   4.318246   97.465289
F   0.957028   2.988099   96.198503
F   7.813242   2.876252   96.058557
F   5.323305   1.312496   95.932504
F   3.124469   0.977147   95.917475
F   7.793920   0.225190   97.443328
H   0.661413   0.787967   97.728752
F   3.667625   3.192347   97.395281
H   5.361820   3.840569   97.625655
C   -0.451137   2.123653   98.774961
C   4.159607   0.372378   98.737231
C   -0.402272   1.234666   100.137722
C   4.239684   4.364606   100.092756
F   0.572145   3.079741   98.846444
F   7.449034   2.868340   98.795135
F   5.026789   1.451008   98.840490
F   2.881061   0.892935   98.674566
F   7.621912   0.354332   100.165904
H   0.492313   0.597331   100.079972
F   3.164402   3.250277   100.013344
H   5.123729   3.829859   100.091181
C   -0.456502   2.083910   101.471073
C   4.079386   0.451546   101.368967
C   -0.374389   1.327281   102.825307
C   4.250955   4.359193   102.733506
F   0.583586   3.044125   101.456563
F   7.431179   2.792788   101.521441
F   4.953131   1.454638   101.383296
F   2.821629   1.023602   101.417297
F   7.641762   0.312606   102.853220
H   0.536418   0.773197   102.863074
F   3.188710   3.278879   102.793987
H   5.165532   3.810815   102.688417
C   -0.408463   2.198825   104.135417
C   4.263263   0.370183   104.039523
C   -0.303837   1.387660   105.484471
C   4.330662   4.281897   105.406576
F   0.609630   3.214183   104.015646
F   7.455508   2.800835   104.123429
F   5.380654   1.244267   104.049580
F   3.087180   1.175507   104.060695
F   7.851832   0.277930   105.565866
H   0.669048   0.910104   105.544136
F   3.239374   3.367493   105.429439
H   5.233190   3.733516   105.303531
C   -0.395114   2.300010   106.737947
C   4.308156   0.350434   106.748881
C   -0.213292   1.458169   108.066942
C   4.665126   4.262268   108.002266
F   0.542639   3.356745   106.688952
F   7.446961   2.887705   106.773556
F   5.251014   1.447844   106.709834
F   3.046466   0.942641   106.935501
F   7.990571   0.400148   108.168193
H   0.715326   0.952582   108.120219
F   3.672160   3.193244   108.105166
H   5.578798   3.753073   107.930306
C   -0.110614   2.283526   109.431222
C   4.721315   0.282978   109.432116
C   0.130735   1.450428   110.701149
C   5.054423   4.247150   110.694223
F   0.898317   3.275427   109.401652
F   7.811341   2.969658   109.672590
F   5.668797   1.288660   109.385207
F   3.474017   0.921232   109.619360
H   0.932446   0.717645   110.647905
H   8.415528   0.816204   110.792182
H   4.380675   3.417378   110.730312
H   6.071159   3.867871   110.661596
C   0.214136   2.270435   112.045603
C   4.993427   0.258757   112.093021
C   0.380856   1.440780   113.379777
C   5.242723   4.222743   113.385168
F   1.343757   3.149748   111.968272
F   8.194780   3.069802   112.059801
F   5.851650   1.299996   112.098748
F   3.690474   0.759231   112.160427
H   1.268563   0.886213   113.305864
H   8.763946   0.739066   113.429399
H   4.426412   3.547066   113.391779
H   6.135308   3.641426   113.266354
C   0.542638   2.303211   114.644933
C   5.468917   0.319557   114.680649
C   0.544672   1.475480   116.008929
C   5.356453   4.271558   115.994751
F   1.732717   2.980602   114.552107
F   8.653531   3.250288   114.637447
F   6.707687   0.898382   114.635274
F   4.519915   1.385498   114.772659
H   1.415832   0.784838   115.899934
H   8.791375   0.875185   116.118707
H   4.510106   3.635181   115.920668
H   6.217070   3.576796   116.089253
C   0.679299   2.382697   117.241568
C   5.223284   0.292215   117.345218
C   0.696711   1.589554   118.609134
C   5.369977   4.215587   118.629717
F   1.816038   3.168075   117.157704
F   8.725583   3.245674   117.315721
F   6.257591   1.233097   117.342205
F   4.018306   1.013244   117.410330
H   1.577792   0.924692   118.553043
H   8.959861   1.012181   118.660096
H   4.527908   3.507200   118.710958
H   6.212721   3.575562   118.531932
C   0.907725   2.504661   119.890333
C   5.492368   0.180266   120.021798
C   0.781373   1.725182   121.186740
C   5.373665   4.020943   121.235024
F   2.191136   3.045848   119.832690
F   9.083398   3.529728   119.878472
F   6.710056   0.820334   120.101038
F   4.535528   1.137698   120.046811
H   1.599324   1.056108   121.280849
H   9.018709   1.099260   121.131576
H   4.398461   3.434509   121.107354
H   6.179449   3.253726   121.179155
C   0.770351   2.499291   122.581171
C   5.319071   0.008819   122.601122
C   0.623816   1.785134   123.958503
C   5.234254   4.044130   123.998502
F   1.956954   3.287477   122.675507
F   8.835909   3.395952   122.500329
F   6.447810   0.810572   122.652091
F   4.161037   0.783724   122.579740
H   1.493066   1.113982   124.046773
H   8.853719   1.191204   123.880739
H   4.319522   3.486914   123.958346
H   6.033860   3.357734   124.044728
C   0.431604   2.648731   125.279737
C   5.258900   0.155767   125.261106
C   0.429105   1.776984   126.560370
C   5.215054   4.193467   126.661623
F   1.473962   3.593103   125.394878
F   8.363161   3.363232   125.232397
F   6.442178   0.946017   125.283630
F   4.148889   1.014424   125.155493
H   1.322174   1.193975   126.638308
H   8.799119   1.062733   126.437633
H   4.528480   3.416710   126.590662
H   6.136247   3.719294   126.862057
C   0.513150   2.503720   127.933356
C   4.858927   0.287751   127.922721
C   0.451061   1.609496   129.219444
C   4.926603   4.281538   129.297682
F   1.693332   3.263436   127.957391
F   8.567550   3.364261   127.957694
F   5.667611   1.438584   127.919266
F   3.556433   0.805020   127.749961
H   1.278395   0.940096   129.298238
H   8.716717   0.990582   129.044816
H   4.143297   3.575379   129.339993
H   5.868527   3.795561   129.345686
C   0.334164   2.454555   130.550914
C   4.812389   0.411914   130.512188
C   0.339116   1.611977   131.843570
C   4.863826   4.359419   131.860824
F   1.347100   3.355116   130.607007
F   8.278695   3.203466   130.547535
F   5.895677   1.251430   130.508091
F   3.688485   1.245323   130.434039
H   1.224381   1.031441   131.958116
H   8.671989   0.908078   131.798726
H   4.094799   3.617432   131.936110
H   5.824003   3.864923   131.903649
C   0.206579   2.453428   133.140549
C   4.715257   0.418389   133.173358
C   0.423082   1.672874   134.457907
C   5.027624   4.471877   134.512912
F   1.086693   3.504681   133.132751
F   8.074826   2.989543   133.151444
F   5.641490   1.479420   133.068534
F   3.486740   0.990532   133.225423
H   1.488108   1.622271   134.596169
H   9.144017   0.678067   134.281187
H   4.712239   3.485656   134.385758
H   6.116185   4.471134   134.667726
C   -0.215357   2.236331   135.744246
C   4.311261   0.255930   135.802639
C   0.181502   1.528973   137.081383
C   4.970857   4.603494   137.195898
F   0.149005   3.561990   135.772665
F   7.544871   2.176998   135.550722
F   4.300354   1.608293   135.734337
F   2.939838   -0.104212   135.717337
H   1.285931   1.355572   137.027718
H   8.832984   0.597790   137.076293
H   5.080329   3.560295   137.167115
H   5.950138   5.065720   137.284979
C   -0.234959   2.289129   138.352723
C   4.254522   0.258264   138.469589
C   0.101909   1.628572   139.754058
C   4.072443   4.773513   93.449521
F   0.403102   3.518122   138.287794
F   7.498939   2.582247   138.263645
F   3.937242   1.655701   138.393938
F   3.005290   -0.467250   138.592507
H   1.077885   1.145576   139.707144
H   8.522925   0.849267   139.871414
H   4.552164   6.339766   141.097305
H   3.372048   5.041135   141.115192
