560
Lattice="34.405369 0.0  0.0  0.000000 22.262298  0.0  0.000000 0.000000 40.962628"
H   1.014570   3.288740   1.708121
C   2.045930   3.012517   1.373860
C   2.528867   3.417891   0.100662
H   1.846231   4.028942   -0.527589
C   3.853565   3.083800   -0.341829
C   4.671399   2.330501   0.563920
H   5.713902   2.085771   0.277689
C   4.192697   1.907958   1.836353
H   4.872571   1.341481   2.521345
C   2.867849   2.256647   2.253866
S   2.015168   1.252023   3.603070
H   2.490273   1.102345   8.503789
C   2.664647   1.762377   7.619407
C   2.336328   1.269043   6.362495
H   1.934464   0.222142   6.296417
C   2.534586   2.027251   5.156822
O   3.389210   3.754654   8.914469
C   3.017911   3.372387   5.276068
H   3.148060   4.020940   4.366708
C   3.316568   3.900407   6.531316
H   3.675147   4.953601   6.584150
C   3.183667   3.120845   7.763844
C   3.765361   3.152699   38.291535
H   2.167861   2.854174   11.239122
C   3.262789   2.672326   11.165270
C   3.990335   2.998196   9.964138
C   5.396013   2.739558   9.987016
H   6.015172   2.981905   9.092524
C   6.056248   2.176138   11.107142
H   7.166533   1.980992   11.100154
C   5.312951   1.864865   12.293319
H   5.815748   1.417463   13.192913
C   3.914583   2.134006   12.322117
S   2.862473   1.365972   13.648247
H   2.882828   1.106564   18.564499
C   3.242388   1.750872   17.722419
C   3.044385   1.290112   16.401290
H   2.538672   0.295921   16.286698
C   3.455358   2.024684   15.248949
O   4.229698   3.560846   19.140469
C   4.092805   3.288334   15.444439
H   4.425973   3.924536   14.582244
C   4.309365   3.784441   16.753032
H   4.811671   4.781976   16.852796
C   3.889877   3.039347   17.926125
H   0.449839   3.510235   21.895164
C   1.508660   3.193682   21.715019
C   2.149450   3.496610   20.473588
H   1.570729   4.057569   19.701220
C   3.508899   3.106770   20.250079
C   4.207462   2.427594   21.296589
H   5.278072   2.136361   21.164790
C   3.565422   2.123656   22.539176
H   4.136836   1.595864   23.345325
C   2.210439   2.514402   22.745854
S   1.198432   1.722795   24.111678
H   1.703140   1.641703   29.017555
C   1.887820   2.276103   28.123292
C   1.579495   1.750469   26.877257
H   1.172743   0.709603   26.814690
C   1.802796   2.476380   25.654327
O   2.616688   4.257464   29.399394
C   2.318049   3.815474   25.762053
H   2.494782   4.434221   24.841732
C   2.595572   4.360894   27.007225
H   2.981872   5.403144   27.054733
C   2.427530   3.635689   28.271061
H   1.262182   3.309024   31.661813
C   2.352295   3.124215   31.625542
C   3.149998   3.505117   30.490106
C   4.546408   3.228816   30.563703
H   5.208551   3.516988   29.719892
C   5.129106   2.579065   31.685289
H   6.231838   2.346261   31.719905
C   4.316800   2.199912   32.804549
H   4.766952   1.687698   33.696241
C   2.934624   2.506307   32.784671
S   1.838218   1.867466   34.122651
H   2.820579   1.215021   38.939497
C   3.014523   1.909486   38.095540
C   2.498894   1.562035   36.853527
H   1.927383   0.603989   36.767538
C   2.694831   2.362993   35.679972
O   4.372434   3.533692   39.416370
C   3.406439   3.593165   35.836875
H   3.571751   4.275001   34.963004
C   3.927784   3.957707   37.077918
H   4.482861   4.915461   37.128549
H   9.108945   3.288209   1.707527
C   10.140673   3.012737   1.373668
C   10.623742   3.417660   0.100383
H   9.940547   4.027616   -0.528389
C   11.948428   3.083424   -0.341966
C   12.766382   2.330649   0.564023
H   13.809023   2.086031   0.278090
C   12.287559   1.908376   1.836498
H   12.967304   1.342267   2.522003
C   10.962579   2.256925   2.253856
S   10.109893   1.252195   3.602865
H   10.590059   1.101293   8.503298
C   10.760105   1.762978   7.619259
C   10.431660   1.269114   6.362867
H   10.033823   0.220670   6.296250
C   10.629634   2.027191   5.156809
O   11.481593   3.755163   8.914842
C   11.113083   3.372355   5.276389
H   11.247486   4.019241   4.366411
C   11.412309   3.899725   6.531424
H   11.776108   4.951146   6.583518
C   11.280618   3.121076   7.764709
C   11.861228   3.152764   38.291644
H   10.263507   2.854138   11.239167
C   11.358394   2.672222   11.165197
C   12.085049   2.998618   9.963476
C   13.490731   2.739589   9.986966
H   14.109650   2.981512   9.092236
C   14.151196   2.176367   11.106931
H   15.261377   1.980866   11.100091
C   13.408174   1.865053   12.293286
H   13.911203   1.417555   13.192646
C   12.009776   2.133930   12.322203
S   10.957123   1.366237   13.648052
H   10.978821   1.106507   18.564491
C   11.337574   1.751201   17.722451
C   11.139833   1.290170   16.401290
H   10.635073   0.295470   16.286832
C   11.550638   2.024532   15.248740
O   12.324065   3.562031   19.140522
C   12.188119   3.288196   15.444425
H   12.523113   3.923451   14.582228
C   12.404806   3.784349   16.752966
H   12.909172   4.780787   16.852650
C   11.985827   3.039379   17.926360
H   8.543806   3.508659   21.894078
C   9.603242   3.193645   21.714815
C   10.244430   3.496407   20.473550
H   9.665022   4.055843   19.700620
C   11.603860   3.106386   20.249894
C   12.302470   2.427796   21.296693
H   13.373162   2.136720   21.165235
C   11.660245   2.124244   22.539289
H   12.231518   1.596957   23.345871
C   10.305121   2.514580   22.745768
S   9.293137   1.722953   24.111464
H   9.802912   1.640786   29.017448
C   9.983278   2.276755   28.123373
C   9.674782   1.750409   26.877389
H   9.272342   0.707819   26.814534
C   9.897843   2.476257   25.654214
O   10.709007   4.258127   29.399637
C   10.413138   3.815408   25.762114
H   10.594445   4.432243   24.841341
C   10.691398   4.360330   27.007554
H   11.083161   5.400590   27.054563
C   10.524485   3.636146   28.272221
H   9.357703   3.308157   31.661200
C   10.447949   3.124046   31.625321
C   11.244673   3.505424   30.489422
C   12.641205   3.228820   30.563551
H   13.303140   3.516622   29.719358
C   13.224204   2.579260   31.685272
H   14.326912   2.346266   31.719875
C   12.411968   2.200216   32.804535
H   12.862243   1.688075   33.696183
C   11.029703   2.506240   32.784787
S   9.932918   1.867754   34.122423
H   10.915874   1.215362   38.939357
C   11.109850   1.909860   38.095468
C   10.594203   1.562389   36.853525
H   10.022759   0.604314   36.767547
C   10.790055   2.362942   35.679666
O   12.466967   3.534946   39.416604
C   11.502005   3.592901   35.836814
H   11.669226   4.273582   34.962417
C   12.023269   3.957574   37.077833
H   12.580155   4.914285   37.127860
H   17.204087   3.288076   1.707658
C   18.235689   3.012615   1.373827
C   18.718103   3.418173   0.100437
H   18.035168   4.028451   -0.528167
C   20.043166   3.083823   -0.341183
C   20.862116   2.330984   0.564064
H   21.905072   2.087746   0.278149
C   20.382624   1.908332   1.836197
H   21.062696   1.342960   2.521848
C   19.057798   2.256804   2.253647
S   18.205254   1.252182   3.602847
H   18.686189   1.100248   8.503381
C   18.855524   1.762254   7.619459
C   18.526806   1.268900   6.362701
H   18.129258   0.220396   6.296193
C   18.724849   2.027079   5.156884
O   19.575318   3.754512   8.915515
C   19.208167   3.372101   5.276428
H   19.342621   4.019167   4.366671
C   19.507574   3.899558   6.531678
H   19.871540   4.950859   6.584398
C   19.376122   3.120107   7.764377
C   19.956035   3.151756   38.290720
H   18.358190   2.854698   11.239638
C   19.453045   2.672720   11.165473
C   20.179982   2.999050   9.963957
C   21.585626   2.739924   9.987007
H   22.204142   2.979776   9.091482
C   22.245620   2.175448   11.106654
H   23.355200   1.976740   11.098203
C   21.503178   1.864551   12.293394
H   22.005615   1.413736   13.191467
C   20.104776   2.134099   12.322445
S   19.052384   1.366175   13.648214
H   19.074967   1.105110   18.564960
C   19.432725   1.750390   17.722487
C   19.234917   1.289840   16.401050
H   18.730848   0.294866   16.286167
C   19.646077   2.024608   15.248840
O   20.418141   3.561163   19.140547
C   20.283268   3.288442   15.444539
H   20.617425   3.924010   14.582237
C   20.499601   3.784738   16.753301
H   21.002816   4.782088   16.853969
C   20.081298   3.038230   17.925547
H   16.638783   3.508671   21.894335
C   17.698194   3.193657   21.714784
C   18.339091   3.497168   20.473597
H   17.760010   4.057409   19.700760
C   19.698508   3.106712   20.250591
C   20.397729   2.427710   21.296706
H   21.468617   2.137010   21.164618
C   19.755404   2.124183   22.539184
H   20.326572   1.596975   23.345936
C   18.400310   2.514527   22.745577
S   17.388486   1.722894   24.111488
H   17.900574   1.639194   29.017163
C   18.078819   2.276137   28.123380
C   17.770092   1.750284   26.877355
H   17.369213   0.707161   26.814554
C   17.992970   2.476244   25.654315
O   18.802821   4.257508   29.400268
C   18.508260   3.815220   25.762311
H   18.690198   4.431935   24.841670
C   18.786823   4.360121   27.007663
H   19.179543   5.399960   27.055163
C   18.619951   3.635189   28.271757
H   17.452179   3.308622   31.661875
C   18.542393   3.124383   31.625562
C   19.339459   3.505725   30.489754
C   20.735843   3.228938   30.563282
H   21.397303   3.514601   29.718108
C   21.318447   2.578534   31.684531
H   22.420546   2.342798   31.717510
C   20.507167   2.200354   32.804730
H   20.957083   1.685832   33.695237
C   19.124748   2.506529   32.785098
S   18.028276   1.867487   34.122574
H   19.011223   1.213976   38.939515
C   19.204819   1.908596   38.095820
C   18.689175   1.562058   36.853030
H   18.118189   0.603824   36.766881
C   18.885260   2.362969   35.679821
O   20.560798   3.534345   39.417050
C   19.597292   3.592650   35.836754
H   19.765189   4.273266   34.962563
C   20.119316   3.957586   37.077841
H   20.677264   4.913591   37.128404
H   5.062609   10.371854   1.708356
C   6.093891   10.095742   1.373903
C   6.576436   10.501680   0.100789
H   5.893945   11.112949   -0.527352
C   7.901239   10.167119   -0.341374
C   8.719555   9.413678   0.563975
H   9.762137   9.169309   0.277816
C   8.240584   8.991418   1.836385
H   8.920669   8.425773   2.521828
C   6.915656   9.339767   2.253897
S   6.062943   8.334978   3.603275
H   6.537278   8.184964   8.504050
C   6.712011   8.845032   7.619769
C   6.383559   8.351724   6.362756
H   5.981381   7.304878   6.297046
C   6.581921   9.109923   5.157009
O   7.435548   10.836826   8.915184
C   7.065160   10.455080   5.276352
H   7.195148   11.103495   4.366912
C   7.364165   10.983456   6.531614
H   7.722994   12.036561   6.584781
C   7.231486   10.203299   7.763684
C   7.812150   10.235626   38.291608
H   6.215303   9.936382   11.239556
C   7.310352   9.755622   11.165767
C   8.038050   10.081748   9.964660
C   9.443833   9.823392   9.987000
H   10.062711   10.064719   9.092122
C   10.103612   9.258800   11.106614
H   11.213500   9.061719   11.098646
C   9.360647   8.948304   12.293158
H   9.863156   8.499383   13.192124
C   7.962365   9.217413   12.322358
S   6.910267   8.448987   13.648459
H   6.928747   8.189736   18.564824
C   7.289523   8.833629   17.722697
C   7.091592   8.372841   16.401525
H   6.584902   7.379121   16.286716
C   7.502763   9.107546   15.249113
O   8.277171   10.642846   19.140902
C   8.140274   10.371278   15.444691
H   8.472964   11.007534   14.582315
C   8.356852   10.867343   16.753399
H   8.858902   11.865187   16.853540
C   7.936939   10.122067   17.926001
H   4.497688   10.593153   21.895537
C   5.556549   10.276904   21.715137
C   6.196951   10.580377   20.473688
H   5.618262   11.141449   19.701279
C   7.556387   10.190080   20.250679
C   8.255554   9.510817   21.296770
H   9.326410   9.220197   21.164968
C   7.613327   9.207092   22.539275
H   8.184839   8.680101   23.345897
C   6.258277   9.597537   22.745907
S   5.246137   8.805824   24.111896
H   5.750344   8.724229   29.017589
C   5.935139   9.358811   28.123500
C   5.626812   8.833267   26.877643
H   5.220068   7.792350   26.815288
C   5.850146   9.559130   25.654566
O   6.663104   11.339765   29.400218
C   6.365321   10.898228   25.762511
H   6.542084   11.516745   24.842066
C   6.643115   11.443873   27.007452
H   7.029873   12.485928   27.055271
C   6.475240   10.717970   28.270721
H   5.309522   10.390800   31.662071
C   6.399801   10.207425   31.626051
C   7.197691   10.588580   30.490625
C   8.594182   10.312625   30.563627
H   9.256048   10.599634   29.719258
C   9.176523   9.661793   31.684578
H   10.278850   9.427038   31.718111
C   8.364475   9.283472   32.804381
H   8.814354   8.769677   33.695270
C   6.982377   9.589757   32.784946
S   5.886024   8.950524   34.122869
H   6.866726   8.298165   38.939937
C   7.061739   8.992131   38.095897
C   6.546247   8.644815   36.853592
H   5.973841   7.687251   36.767741
C   6.742293   9.445892   35.680162
O   8.420336   10.615283   39.416802
C   7.454026   10.675917   35.837106
H   7.619007   11.357834   34.963296
C   7.975470   11.040685   37.078229
H   8.530257   11.998576   37.129225
H   13.157174   10.371440   1.707785
C   14.188551   10.095574   1.373575
C   14.670892   10.501521   0.100306
H   13.988157   11.112361   -0.527931
C   15.996109   10.167653   -0.341195
C   16.814455   9.413988   0.563920
H   17.857444   9.170836   0.278198
C   16.335069   8.991419   1.836166
H   17.015345   8.426726   2.522144
C   15.010328   9.339908   2.253793
S   14.157699   8.335120   3.603089
H   14.637399   8.183450   8.503457
C   14.807675   8.845288   7.619591
C   14.478884   8.351710   6.362883
H   14.080578   7.303396   6.296722
C   14.677117   9.109778   5.156905
O   15.529951   10.837183   8.915340
C   15.160533   10.454940   5.276376
H   15.292869   11.102490   4.366624
C   15.458921   10.983229   6.531620
H   15.819470   12.035761   6.584210
C   15.327433   10.203462   7.764093
C   15.907197   10.235537   38.290840
H   14.310729   9.937015   11.239580
C   15.405580   9.755380   11.165597
C   16.133023   10.081409   9.964286
C   17.538699   9.822473   9.986902
H   18.157252   10.062538   9.091519
C   18.198736   9.260053   11.107377
H   19.308864   9.064511   11.100248
C   17.455897   8.949970   12.294104
H   17.958972   8.504410   13.194478
C   16.057269   9.217547   12.322595
S   15.004888   8.449249   13.648413
H   15.025127   8.188090   18.565216
C   15.383990   8.833311   17.722773
C   15.185635   8.373191   16.400997
H   14.680429   7.378780   16.285611
C   15.597147   9.108189   15.248826
O   16.365508   10.647084   19.140682
C   16.236386   10.371210   15.444971
H   16.580693   11.001627   14.582719
C   16.456426   10.865437   16.753844
H   16.974720   11.855291   16.854768
C   16.035370   10.119760   17.925454
H   12.591600   10.590798   21.896222
C   13.650997   10.276417   21.715673
C   14.290348   10.580005   20.473711
H   13.710358   11.139343   19.700729
C   15.650169   10.189976   20.252009
C   16.352398   9.512447   21.296870
H   17.424304   9.224686   21.164803
C   15.708951   9.207413   22.538159
H   16.280349   8.681461   23.345624
C   14.353882   9.597004   22.745636
S   13.341070   8.806020   24.111585
H   13.850019   8.722664   29.017276
C   14.030754   9.358814   28.123434
C   13.722241   8.833048   26.877517
H   13.319289   7.790671   26.814815
C   13.945227   9.559005   25.654336
O   14.756397   11.339878   29.400351
C   14.460334   10.898189   25.762464
H   14.638499   11.516063   24.841885
C   14.738535   11.443625   27.007561
H   15.127072   12.485002   27.055099
C   14.571358   10.717817   28.270972
H   13.404864   10.391873   31.662504
C   14.494934   10.207287   31.625836
C   15.292395   10.589145   30.490302
C   16.689115   10.313734   30.563573
H   17.351156   10.601990   29.719839
C   17.271066   9.662287   31.684349
H   18.373575   9.428354   31.717887
C   16.459433   9.283076   32.804180
H   16.909465   8.769591   33.695238
C   15.077320   9.589533   32.785035
S   13.980781   8.950717   34.122724
H   14.962232   8.297660   38.939597
C   15.157011   8.991770   38.095733
C   14.641522   8.645017   36.853061
H   14.069215   7.687462   36.767043
C   14.837584   9.446089   35.679826
O   16.514571   10.615632   39.416600
C   15.549796   10.675753   35.836902
H   15.715530   11.356838   34.962731
C   16.071324   11.041099   37.077990
H   16.626889   11.998415   37.129122
C   27.075038   14.987660   4.105454
C   27.908520   16.040919   3.580618
C   28.733478   15.766805   2.461206
C   28.656806   14.414194   1.920871
C   26.953809   13.680663   3.548955
C   27.722199   13.378040   2.352858
C   29.482968   13.886160   0.618243
N   28.556654   12.676236   0.216684
C   26.485884   8.867620   18.853867
H   27.920566   17.048876   4.066486
H   29.460252   16.515495   2.002063
H   26.260299   12.872715   3.904704
O   26.983109   11.304662   1.501548
C   27.702556   12.195878   1.437833
O   30.191975   14.495495   0.034652
C   26.306830   15.289197   5.325776
C   25.778195   16.606574   5.643917
C   25.111672   16.835110   6.820105
C   24.958429   15.732885   7.789561
C   26.168825   14.154532   6.180726
C   25.489022   14.411851   7.412813
C   24.256018   15.737230   9.179256
N   24.381373   14.137715   9.479788
O   23.871475   16.515281   9.925604
H   25.923521   17.401689   4.877592
H   24.694600   17.822423   7.111576
H   26.607456   13.141515   5.990112
O   25.460964   12.180228   8.525724
C   25.235067   13.291207   8.437284
C   25.840255   10.151527   18.618560
O   26.240488   11.032199   17.634964
H   24.879622   8.925106   16.495384
C   23.610993   12.536991   15.426428
C   22.999228   11.350647   14.870828
C   23.465903   10.057378   15.309991
C   24.553008   9.952913   16.215291
C   25.167025   11.139215   16.763669
C   24.702177   12.433745   16.329204
C   28.247630   13.326155   38.705096
H   26.439234   6.885753   19.839752
H   27.473610   8.649536   18.379307
H   20.600572   12.925843   12.142758
C   21.716134   12.823698   11.962800
C   22.354105   13.589560   10.932811
H   24.138712   7.402839   20.954340
C   23.739909   13.477395   10.640007
O   22.044972   11.448678   13.849788
C   24.531255   12.595397   11.430685
H   25.626328   12.486738   11.183457
C   24.013649   11.837533   12.521172
H   24.721585   11.161047   13.098512
C   22.606149   12.021535   12.756261
H   22.999317   9.117068   14.915604
H   23.266768   13.560662   15.126110
C   24.561220   10.372907   19.260566
C   23.933022   9.404531   20.089030
H   24.017917   11.376351   19.158307
C   24.634236   8.166740   20.273046
H   25.156400   13.371780   16.726714
C   25.894462   7.866306   19.679407
H   21.699515   14.257596   10.299566
C   21.436174   12.845445   24.282190
C   20.499099   13.327398   23.213540
C   20.471040   12.621196   21.974014
C   21.406787   11.488588   21.781360
C   22.198091   11.691318   24.224073
C   22.182819   10.983555   22.932773
C   21.668009   10.847362   20.509152
N   22.779006   9.726476   20.959164
C   27.874664   14.367956   37.798927
H   19.899366   14.128898   23.452974
H   19.822247   12.856598   21.246588
H   22.904385   11.319649   25.022188
O   23.936197   9.263204   23.075892
C   23.088707   9.832388   22.528778
O   21.360920   11.058218   19.399033
H   19.869130   16.179464   31.143530
C   21.574353   13.693238   25.466555
C   21.636294   15.129826   25.209121
C   21.800556   15.995677   26.287289
C   21.855707   15.446924   27.623676
C   21.681643   13.080409   26.701149
C   21.826693   13.974517   27.826868
C   21.885538   16.247385   28.973070
N   21.886795   15.003864   29.953469
O   21.897647   17.319946   29.272733
H   21.568772   15.504053   24.160460
H   21.847709   17.107590   26.183062
H   21.626144   11.983977   26.917896
O   21.896008   12.560969   29.899225
C   21.914063   13.552744   29.327895
C   26.783925   15.222496   38.190153
O   26.453895   16.246076   37.314189
H   24.483831   14.295867   37.995747
C   23.299528   17.412137   35.786913
C   22.407629   16.323118   36.089595
C   22.853053   15.235324   36.911445
C   24.199975   15.180196   37.370171
C   25.119668   16.278001   37.067142
C   24.635919   17.392037   36.253474
H   26.073893   13.970579   41.241663
H   29.077341   12.650049   38.362157
H   28.356143   14.473518   36.798816
H   18.976024   16.682042   33.369641
C   20.394945   16.439389   33.232680
C   20.585208   16.089946   31.845804
C   21.625990   15.210834   31.420445
O   21.150362   16.248167   35.421205
C   22.509874   14.640512   32.418808
H   23.323595   13.940584   32.098064
C   22.387012   14.951228   33.790283
H   23.120929   14.483140   34.476406
C   21.327615   15.846948   34.155329
H   22.187149   14.384569   37.205492
H   22.982009   18.294571   35.177988
C   26.178434   15.105560   39.475601
C   26.592680   14.037044   40.318401
H   25.365393   15.805404   39.833582
C   27.668134   13.162301   39.970642
H   25.310873   18.255123   36.030305
