276
Lattice="9.055195 0.0 0.0  0.0 9.055195 0.0  0.0 0.0 45.146142"
H   0.249966   3.201123   0.000000
C   1.118172   2.855052   0.554577
C   1.413396   1.497438   0.606896
H   5.410522   4.001051   0.855131
H   1.680650   4.826878   1.114361
H   3.731849   5.991741   1.131902
C   1.944392   3.777960   1.195403
C   2.524159   1.060692   1.321975
H   2.757353   0.000000   1.365648
C   3.085189   3.358196   1.904727
C   5.477636   4.072386   1.944151
C   3.345817   1.982452   1.970914
H   6.187384   4.872167   2.168369
C   3.746513   5.828704   2.212727
H   5.898395   3.137378   2.318697
H   4.209143   1.614962   2.518964
C   4.075082   4.351571   2.556082
H   2.776063   6.119626   2.623018
H   4.492741   6.503590   2.640007
C   4.071372   4.253711   4.097867
H   1.987891   3.679417   4.247811
H   6.118968   4.926667   4.363529
C   2.891898   3.943585   4.790136
C   5.192706   4.638212   4.849907
C   2.825951   4.048726   6.180686
C   5.126078   4.748127   6.237963
H   1.881659   3.874781   6.690322
H   5.984045   5.122019   6.791240
C   3.940624   4.460627   6.907318
O   3.799742   4.825911   8.229992
H   5.974409   3.491775   9.031510
C   3.896874   4.006694   9.334833
C   5.118280   3.413586   9.697523
H   1.872688   4.462588   9.961868
C   2.803985   3.955872   10.203460
C   5.264471   2.788788   10.946381
H   6.220622   2.372992   11.254312
C   2.970604   3.318467   11.425831
C   4.167184   2.774630   11.806279
C   2.035832   3.204619   12.562042
O   0.895904   3.626314   12.598720
C   4.029067   2.339083   13.226683
N   2.762634   2.687915   13.595857
O   4.907378   1.917912   13.952659
H   1.769890   4.884555   14.626794
C   2.316219   2.815545   14.965968
C   1.808387   4.064945   15.337346
H   2.855548   0.835482   15.678854
C   2.407182   1.794154   15.934948
C   1.344363   4.295953   16.618566
H   0.942358   5.266805   16.892654
C   1.951304   2.031365   17.248335
C   1.425396   3.293457   17.562526
O   4.451369   1.036142   18.190819
N   2.163088   1.147992   18.376739
H   1.100752   3.531857   18.571564
C   3.433468   1.029014   18.854543
O   0.027428   1.275346   19.230112
C   1.228910   1.152238   19.376444
C   3.325197   1.433946   20.279816
C   1.997197   1.558294   20.579878
H   5.361842   1.738880   20.919538
C   4.309580   1.853885   21.167092
C   1.570903   2.193418   21.745902
H   0.511084   2.354439   21.928268
C   3.905917   2.516208   22.336055
C   2.542164   2.733185   22.608489
H   4.660719   2.891530   23.020688
H   0.930634   5.742384   23.228470
O   2.124052   3.433913   23.736332
C   1.774292   5.819486   23.910594
C   2.541855   4.688620   24.190030
H   1.434214   7.892860   24.231846
H   4.929060   8.781874   24.287029
H   2.701104   9.822246   24.361153
C   2.061243   7.051753   24.510601
C   3.593402   4.818898   25.099607
H   4.188955   3.946711   25.354502
C   4.954999   8.891383   25.374040
C   3.119078   7.203631   25.428823
C   2.657859   9.752821   25.450905
H   5.279921   9.912672   25.590651
C   3.878889   6.054697   25.702022
H   1.613731   9.617609   25.741497
H   5.711288   8.204059   25.758639
H   2.984837   10.715229   25.853541
C   3.556188   8.598790   25.987356
H   4.719478   6.118469   26.387651
C   3.548977   8.761852   27.543185
H   1.435628   8.357455   27.739936
H   5.632454   9.353645   27.778145
C   2.338243   8.686571   28.248915
C   4.666306   9.240991   28.257660
C   2.230851   9.141419   29.570349
C   4.560753   9.692873   29.579330
H   1.257127   9.159987   30.054080
H   5.425034   10.144589   30.059477
C   3.335872   9.658867   30.243893
O   3.139472   10.352585   31.436008
H   5.478086   9.343998   32.332243
C   3.440744   9.959606   32.733647
C   4.707096   9.460762   33.088196
H   1.498759   10.586661   33.479439
C   2.470272   10.166076   33.726889
C   4.998351   9.129812   34.420389
H   5.975286   8.745135   34.702940
C   2.775408   9.811616   35.039396
C   4.001160   9.304257   35.375790
C   1.955004   9.861959   36.277648
O   0.803126   10.235348   36.379175
C   3.988633   9.016948   36.834375
N   2.743831   9.358891   37.269537
O   4.895315   8.557824   37.501037
C   2.296256   9.178512   38.633627
H   2.935773   7.119578   38.775226
H   1.543694   11.195826   38.832059
C   2.457420   7.949737   39.288468
C   1.676352   10.235672   39.317880
C   2.001640   7.778032   40.598100
C   1.221177   10.059874   40.619687
H   0.733581   10.882346   41.142630
O   0.000000   5.778580   41.148777
C   1.382577   8.836330   41.260862
N   2.172563   6.527985   41.286148
C   1.153453   5.659383   41.517736
O   4.400528   6.756267   41.821392
C   3.349867   6.149755   41.845997
H   1.021113   8.707349   42.280693
C   1.735785   4.581699   42.352381
C   3.057995   4.876849   42.554950
H   0.096929   3.230640   42.748804
C   1.149122   3.451629   42.908604
C   3.877872   4.063638   43.329097
H   4.923081   4.313132   43.492983
C   1.955653   2.613277   43.689498
C   3.310019   2.917655   43.898920
O   1.413396   1.497438   44.253037
H   3.927360   2.264561   44.511623
H   6.653923   9.605080   0.000000
C   7.522129   9.259009   0.554577
C   7.817353   7.901395   0.606896
H   11.814479   10.405008   0.855131
H   8.084607   11.230835   1.114361
H   10.135806   12.395698   1.131902
C   8.348349   10.181917   1.195403
C   8.928116   7.464649   1.321975
H   9.161310   6.403957   1.365648
C   9.489146   9.762153   1.904727
C   11.881593   10.476343   1.944151
C   9.749774   8.386409   1.970914
H   12.591341   11.276124   2.168369
C   10.150470   12.232661   2.212727
H   12.302352   9.541335   2.318697
H   10.613100   8.018919   2.518964
C   10.479039   10.755528   2.556082
H   9.180020   12.523583   2.623018
H   10.896698   12.907547   2.640007
C   10.475329   10.657668   4.097867
H   8.391848   10.083374   4.247811
H   12.522925   11.330624   4.363529
C   9.295855   10.347542   4.790136
C   11.596663   11.042169   4.849907
C   9.229908   10.452683   6.180686
C   11.530035   11.152084   6.237963
H   8.285616   10.278738   6.690322
H   12.388002   11.525976   6.791240
C   10.344581   10.864584   6.907318
O   10.203699   11.229868   8.229992
H   12.378366   9.895732   9.031510
C   10.300831   10.410651   9.334833
C   11.522237   9.817543   9.697523
H   8.276645   10.866545   9.961868
C   9.207942   10.359829   10.203460
C   11.668428   9.192745   10.946381
H   12.624579   8.776949   11.254312
C   9.374561   9.722424   11.425831
C   10.571141   9.178587   11.806279
C   8.439789   9.608576   12.562042
O   7.299861   10.030271   12.598720
C   10.433024   8.743040   13.226683
N   9.166591   9.091872   13.595857
O   11.311335   8.321869   13.952659
H   8.173847   11.288512   14.626794
C   8.720176   9.219502   14.965968
C   8.212344   10.468902   15.337346
H   9.259505   7.239439   15.678854
C   8.811139   8.198111   15.934948
C   7.748320   10.699910   16.618566
H   7.346315   11.670762   16.892654
C   8.355261   8.435322   17.248335
C   7.829353   9.697414   17.562526
O   10.855326   7.440099   18.190819
N   8.567045   7.551949   18.376739
H   7.504709   9.935814   18.571564
C   9.837425   7.432971   18.854543
O   6.431385   7.679303   19.230112
C   7.632867   7.556195   19.376444
C   9.729154   7.837903   20.279816
C   8.401154   7.962251   20.579878
H   11.765799   8.142837   20.919538
C   10.713537   8.257842   21.167092
C   7.974860   8.597375   21.745902
H   6.915041   8.758396   21.928268
C   10.309874   8.920165   22.336055
C   8.946121   9.137142   22.608489
H   11.064676   9.295487   23.020688
H   7.334591   12.146341   23.228470
O   8.528009   9.837870   23.736332
C   8.178249   12.223443   23.910594
C   8.945812   11.092577   24.190030
H   7.838171   14.296817   24.231846
H   11.333017   15.185831   24.287029
H   9.105061   16.226203   24.361153
C   8.465200   13.455710   24.510601
C   9.997359   11.222855   25.099607
H   10.592912   10.350668   25.354502
C   11.358956   15.295340   25.374040
C   9.523035   13.607588   25.428823
C   9.061816   16.156778   25.450905
H   11.683878   16.316629   25.590651
C   10.282846   12.458654   25.702022
H   8.017688   16.021566   25.741497
H   12.115245   14.608016   25.758639
H   9.388794   17.119186   25.853541
C   9.960145   15.002747   25.987356
H   11.123435   12.522426   26.387651
C   9.952934   15.165809   27.543185
H   7.839585   14.761412   27.739936
H   12.036411   15.757602   27.778145
C   8.742200   15.090528   28.248915
C   11.070263   15.644948   28.257660
C   8.634808   15.545376   29.570349
C   10.964710   16.096830   29.579330
H   7.661084   15.563944   30.054080
H   11.828991   16.548546   30.059477
C   9.739829   16.062824   30.243893
O   9.543429   16.756542   31.436008
H   11.882043   15.747955   32.332243
C   9.844701   16.363563   32.733647
C   11.111053   15.864719   33.088196
H   7.902716   16.990618   33.479439
C   8.874229   16.570033   33.726889
C   11.402308   15.533769   34.420389
H   12.379243   15.149092   34.702940
C   9.179365   16.215573   35.039396
C   10.405117   15.708214   35.375790
C   8.358961   16.265916   36.277648
O   7.207083   16.639305   36.379175
C   10.392590   15.420905   36.834375
N   9.147788   15.762848   37.269537
O   11.299272   14.961781   37.501037
C   8.700213   15.582469   38.633627
H   9.339730   13.523535   38.775226
H   7.947651   17.599783   38.832059
C   8.861377   14.353694   39.288468
C   8.080309   16.639629   39.317880
C   8.405597   14.181989   40.598100
C   7.625134   16.463831   40.619687
H   7.137538   17.286303   41.142630
O   6.403957   12.182537   41.148777
C   7.786534   15.240287   41.260862
N   8.576520   12.931942   41.286148
C   7.557410   12.063340   41.517736
O   10.804485   13.160224   41.821392
C   9.753824   12.553712   41.845997
H   7.425070   15.111306   42.280693
C   8.139742   10.985656   42.352381
C   9.461952   11.280806   42.554950
H   6.500886   9.634597   42.748804
C   7.553079   9.855586   42.908604
C   10.281829   10.467595   43.329097
H   11.327038   10.717089   43.492983
C   8.359610   9.017234   43.689498
C   9.713976   9.321612   43.898920
O   7.817353   7.901395   44.253037
H   10.331317   8.668518   44.511623
