138
Lattice="   32.0000000    0.00000000    0.00000000    0.00000000    18.0000000    0.00000000    0.00000000    0.00000000    58.0000000"
H   16.5699283112   2.45120650144   53.5356205471
C   15.7935561671   2.05714368866   52.8733427113
H   14.8181075475   2.17450422660   53.3549232410
H   15.9840081421  0.995047812071   52.6883190204
C   15.8277169113   2.82771247053   51.5721505918
F   17.0974731166   2.71824675967   51.0334918805
F   15.6469445207   4.17027252569   51.8524444692
C   14.7744353292   2.33726410672   50.5666469523
H   13.7928067486   2.43793455242   51.0479094528
H   14.9574381240   1.26794256059   50.3993756977
C   14.6966907307   3.01798320918   49.1966108644
F   15.9064577760   2.89498327425   48.5525241580
F   14.4622044151   4.36162923463   49.3705298163
C   13.5863588730   2.41160878954   48.3134341240
H   12.6344978359   2.50126062794   48.8509684338
H   13.7977882253   1.34250178107   48.1842450409
C   13.4318082555   3.04405469648   46.9219959519
F   14.6260757908   2.92808401905   46.2488885717
F   13.1709741178   4.38559116976   47.0645393842
C   12.3202710615   2.41009665505   46.0653568768
H   11.3630263624   2.53319252293   46.5852124510
H   12.5280254991   1.33726385836   45.9610898316
C   12.1948298694   3.02966841536   44.6643897885
F   13.3844098122   2.90358405645   43.9894242406
F   11.9174283287   4.36106551602   44.7847182223
C   11.1135221796   2.35271524162   43.7712835495
F   9.89964366389   2.34362952367   44.4583854541
H   11.4208650765   1.30951188764   43.6043398195
C   10.9048369154   3.03489651366   42.3843968975
F   12.1168725351   2.98309988025   41.7415652811
F   10.5822087266   4.34895529684   42.5759138979
C   9.81566039015   2.38232723906   41.5153382243
H   8.86125184235   2.47237853743   42.0472181005
H   10.0385942281   1.31503770728   41.3888399229
C   9.67407849585   3.01917364641   40.1169262170
F   10.8723319754   2.89656994905   39.4536454538
F   9.42787469813   4.36354675553   40.2594203164
C   8.56009389937   2.39293638260   39.2550018892
H   7.60432344831   2.50921959176   39.7819893768
H   8.76892867019   1.32342710390   39.1361681726
C   8.42558440342   3.01112785584   37.8526172746
F   9.60776130247   2.87770117705   37.1826186223
F   8.15259611800   4.35019546883   37.9662842052
C   7.27573744089   2.38006878596   37.0014658343
H   6.32954355715   2.51451010592   37.5454585272
F   7.51423217118   1.01101627329   36.8834134110
C   7.11258890713   2.99449553411   35.5786594875
F   8.31735220440   2.93822249472   34.9377156542
F   6.78935271164   4.31568542081   35.7733962940
C   6.03369814728   2.33242249490   34.7008540281
H   5.06728149430   2.41586228085   35.2141691390
H   6.27325877199   1.26893464817   34.5878079957
C   5.89486865294   2.96888484812   33.2999542670
F   7.09364471894   2.85336418303   32.6354461608
F   5.64448431748   4.31218778581   33.4454309682
C   4.78083112081   2.34519925997   32.4346284531
H   3.82759635565   2.42067916129   32.9712032674
H   5.01028608209   1.28348939208   32.2858724362
C   4.60679400625   3.00635025345   31.0568150033
F   5.78601653287   2.92351149097   30.3544607077
F   4.30640858882   4.32762437116   31.2247430727
C   3.50428979333   2.33996640524   30.1700422109
F   2.29986610982   2.35995436965   30.8672138082
H   3.78403904208   1.29129164578   29.9880892362
C   3.29505841440   3.02120905305   28.7832332048
F   4.51097405131   2.91863631452   28.1365438088
F   3.05337635819   4.36270563128   28.9776325771
C   2.17172218260   2.48952508238   27.9466419066
H   1.20392299915   2.44013677373   28.4461284726
C   2.19649513539   2.23309780014   26.6338554735
F   1.00852197889   1.91714436722   26.0551596658
C   3.33871617076   2.13743887185   25.6712312432
H   4.27290679779   2.29887296013   26.2096539974
H   3.36601260525   1.12120552272   25.2566148733
C   3.30755093687   3.12552653134   24.4982739062
F   2.14363136518   2.99714229555   23.8012481406
F   3.34852110636   4.41813400244   24.9735433601
C   4.55477108352   2.94756591826   23.5770312774
H   5.41355313604   3.37412246579   24.1160965936
F   4.79642922330   1.58406455576   23.3915594820
C   4.46509424608   3.60532668711   22.1745686478
F   3.36539129855   3.11285567997   21.5310213474
F   4.27999475705   4.95023693005   22.3824395467
C   5.71985563452   3.36141011214   21.3158445432
H   6.59369536168   3.74219618615   21.8598778021
H   5.83650623084   2.27772534124   21.1965009282
C   5.69173722727   4.02839835666   19.9272899063
F   4.54878007836   3.65460475154   19.2664106252
F   5.62491962341   5.39159284021   20.1041489581
C   6.91725621194   3.68068509686   19.0500669130
H   7.82313040863   4.04114746624   19.5519089105
H   6.98249396895   2.58810667031   18.9700668477
C   6.87417995681   4.27811388775   17.6306085535
F   5.77459084976   3.80739231832   16.9565105423
F   6.75457940752   5.63445353563   17.7223177976
C   8.10724226167   3.91630369856   16.7379888867
F   9.28283136411   4.22528119408   17.4230214788
H   8.09119630414   2.83039855282   16.5660870761
C   8.13156183469   4.63450858475   15.3504172315
F   6.98789739707   4.25472810990   14.6964145426
F   8.08152000611   5.98473548384   15.5525709946
C   9.36218280148   4.30951997392   14.4811112494
H   10.2550230047   4.65427840545   15.0151767916
H   9.43857077103   3.22279524663   14.3506018800
C   9.33187577081   4.95852031345   13.0796049453
F   8.21897174690   4.51259391244   12.4079304009
F   9.19919300411   6.31898174267   13.2156468274
C   10.5818230495   4.65628329921   12.2231335149
H   11.4715137606   5.01856543751   12.7544201201
H   10.6697329410   3.57156429544   12.0922380963
C   10.5586669354   5.30806939122   10.8307805518
F   9.43782964941   4.92215743535   10.1561060900
F   10.5203038032   6.67279552381   10.9740635482
C   11.8166259253   4.98349371791   9.96038740247
H   12.7055216424   5.35633296927   10.4900553979
F   11.9431827400   3.59984573422   9.83793268422
C   11.7836799916   5.60417687568   8.53106638093
F   10.6660057874   5.16106557633   7.88531691032
F   11.6749528249   6.96132120510   8.69987804693
C   13.0172348552   5.30287694512   7.66635183434
H   13.9102781093   5.67933505637   8.18214394485
H   13.1157326119   4.21650461801   7.55373635725
C   12.9637286461   5.94029745133   6.26112278462
F   11.8499988873   5.48663654904   5.59562811882
F   12.8323315056   7.30272049387   6.38154433302
C   14.2080372552   5.61999603244   5.42310792128
H   15.0978663007   5.96862091153   5.95977047482
H   14.2779943537   4.52931475683   5.32761103726
C   14.2561591957   6.21414914283   4.00891267721
F   13.1989803813   5.77225163118   3.24964708695
F   14.1957505728   7.57760991920   4.05280265432
C   15.5358969902   5.77481000881   3.25890328220
F   16.6530881698   6.11295447323   4.02534995456
H   15.5131871596   4.67912090078   3.16140330588
C   15.7545126545   6.36031508682   1.85191772086
F   14.7783260545   5.91373193860   1.00223211503
F   15.7312376682   7.72201949551   1.85021469267
H   16.7334133372   6.03511790841   1.46346084500
