138
Lattice="   32.0000000    0.00000000    0.00000000    0.00000000    18.0000000    0.00000000    0.00000000    0.00000000    58.0000000"
H   29.8781407120   2.46661531884   53.5390828067
C   29.0968621833   2.06998218191   52.8847019230
H   28.1257870398   2.18833955676   53.3764494026
H   29.2853115528   1.00679512771   52.7097865728
C   29.1198225155   2.83592233891   51.5777707922
F   30.3866784674   2.72691453887   51.0340725752
F   28.9323526908   4.17687464098   51.8542101790
C   28.0699959074   2.34485300537   50.5692802599
H   27.0868875670   2.43874535697   51.0478356578
H   28.2544236479   1.27478979009   50.4110871236
C   28.0196194546   3.03430241586   49.1967319821
F   29.2354397496   2.88209914416   48.5702470538
F   27.8249506047   4.38176660853   49.3644665023
C   26.9022654727   2.45553253295   48.3010306470
H   25.9460914092   2.56256595364   48.8259117988
H   27.0997674948   1.38517971011   48.1715682334
C   26.7488415317   3.09036282893   46.9110961960
F   27.9484722770   3.00236518887   46.2452687068
F   26.4655444082   4.42598062211   47.0583685600
C   25.6410681658   2.43958448660   46.0484888631
H   24.6754846629   2.55633213350   46.5552982871
H   25.8411347364   1.36609769431   45.9464572430
C   25.5192418746   3.04920602469   44.6433733507
F   26.7019968502   2.88698289716   43.9659199673
F   25.2752588246   4.38598501064   44.7504002374
C   24.4130305758   2.39465085247   43.7622925078
F   23.2019424245   2.42581642535   44.4555807083
H   24.6772832188   1.34161109911   43.5961592992
C   24.2136105023   3.07013238673   42.3739070720
F   25.4185733340   2.99189332401   41.7229909862
F   23.9153295787   4.38796216559   42.5530415633
C   23.1204797504   2.40487687374   41.5218638977
H   22.1661418638   2.49090565424   42.0500440998
H   23.3600054438   1.33974528950   41.4134649225
C   22.9760141168   3.02159992299   40.1186322975
F   24.1731068488   2.90394855980   39.4555774344
F   22.7200016287   4.36365320180   40.2551766587
C   21.8610482933   2.38546795386   39.2637775832
H   20.9119811219   2.51210626618   39.7996306659
H   22.0510346650   1.31261916915   39.1515784658
C   21.7202602117   3.02197873393   37.8694560611
F   22.8996556752   2.90643870457   37.1927433685
F   21.4350791500   4.35513664698   38.0085743891
C   20.5757512116   2.41365698657   37.0097269906
H   19.6257091204   2.57002931760   37.5378569920
F   20.7886563314   1.04286796320   36.8955848836
C   20.4447333512   3.02442495488   35.5853388560
F   21.6447179902   2.92709452624   34.9431153938
F   20.1607926132   4.35403544830   35.7603894884
C   19.3534054866   2.36281381485   34.7296545056
H   18.3940629659   2.44176217353   35.2551934756
H   19.5975880546   1.30132721177   34.6163631976
C   19.1977312637   2.99533235782   33.3361868738
F   20.3938590546   2.90131055600   32.6667231989
F   18.9214582716   4.33194784011   33.4841132517
C   18.0914242809   2.34411759222   32.4861094411
H   17.1397914829   2.40982792234   33.0242521411
H   18.3353471227   1.28496639811   32.3485012412
C   17.9171146653   2.99601199623   31.1071468629
F   19.0977433295   2.91766717794   30.4130739636
F   17.6075871969   4.31433690349   31.2729849495
C   16.8248641269   2.32501631543   30.2165078661
F   15.6125447734   2.36991828331   30.9026462192
H   17.0966362086   1.27261640314   30.0610640193
C   16.6714876540   2.98601066169   28.8149258711
F   17.8549559088   2.77634467752   28.1654762528
F   16.5290875785   4.35750390019   28.9916053525
C   15.4920023457   2.63495415973   27.9481620422
H   14.5223902118   2.78924220672   28.4129325550
C   15.5334387323   2.59403075448   26.6067215801
F   16.6821673133   2.37982134961   25.9414321033
C   14.4403703353   3.07263185511   25.7027566565
H   13.5308556790   3.25956304463   26.2846282718
H   14.7880549708   4.04893452815   25.3345715558
C   14.0623650822   2.26514392415   24.4629313818
F   15.1773937715   1.88517213098   23.7766559598
F   13.4035148385   1.11574671982   24.8350704713
C   13.1020347199   3.09329871594   23.5507426546
H   12.1465255798   3.19293564038   24.0891871048
F   13.6331678558   4.37159866658   23.3823994389
C   12.8366086446   2.51439064397   22.1408660835
F   14.0313128900   2.39096049390   21.4884122008
F   12.3208339976   1.25732629063   22.3329831332
C   11.8840261174   3.37920882105   21.2952073308
H   10.9424695548   3.52056810171   21.8394662195
H   12.3524621267   4.36292417868   21.1742969174
C   11.5652671276   2.79232860766   19.9081258107
F   12.7446814113   2.53938760012   19.2506940683
F   10.9306577913   1.58271628315   20.0884833537
C   10.6833226560   3.69114345543   19.0175349567
H   9.72813129924   3.86873914973   19.5240496725
H   11.1844318201   4.65839587531   18.8869471577
C   10.3868940732   3.10355392116   17.6231479176
F   11.5594314909   2.89340172143   16.9435084695
F   9.76293996006   1.89614640574   17.7556793864
C   9.51257200715   4.03334853732   16.7269297437
F   8.33445742493   4.33729977781   17.4093527216
H   10.0645263427   4.96854794552   16.5667430699
C   9.14305479755   3.44042573784   15.3325888921
F   10.3274805605   3.20748456372   14.6809552353
F   8.50942859779   2.24200186213   15.5054148740
C   8.26201909230   4.36705543413   14.4778313788
H   7.32127871645   4.54427726018   15.0082570592
H   8.77835299504   5.32804847193   14.3638098481
C   7.95492113060   3.80350988404   13.0742091127
F   9.13789797077   3.59345333864   12.4091311153
F   7.35285651336   2.57385393736   13.2137168329
C   7.04411553118   4.70308563513   12.2120693514
H   6.08525286475   4.81325330967   12.7337817043
H   7.49502253981   5.69678658946   12.1157514029
C   6.77815773119   4.13513922113   10.8034438661
F   7.95957642881   4.01509163018   10.1303382349
F   6.22135193223   2.88544715853   10.9139624513
C   5.79196385698   4.98136063970   9.94634636002
H   4.83807143904   5.06207240422   10.4841317103
F   6.32201850801   6.26294739391   9.80999514027
C   5.49443202776   4.39801105473   8.52886883262
F   6.67116737939   4.14995811652   7.88443424285
F   4.85409611641   3.19675537389   8.72063569351
C   4.61287571008   5.31168903782   7.66554768163
H   3.66533123236   5.47717670481   8.19213998244
H   5.11847079654   6.27814824215   7.55857856375
C   4.29562700736   4.74715765933   6.26557265520
F   5.46889079577   4.52982363014   5.58526333141
F   3.68135634470   3.52302734019   6.40023975298
C   3.39107963358   5.66960820130   5.43484076563
H   2.45055174761   5.81956645965   5.97786187685
H   3.88140019891   6.64643418402   5.34199115564
C   3.03817746160   5.16428181177   4.02471206269
F   4.17115221480   4.98681950475   3.26707196711
F   2.39830739682   3.95836066092   4.10089489844
C   2.14993448440   6.17293229955   3.25784297480
F   1.00989055285   6.43481039336   4.02007849798
H   2.71610438139   7.11021982271   3.15281153732
C   1.64902585718   5.78436231712   1.85384034946
F   2.69655049909   5.65546178022  0.982875184601
F  0.951234789168   4.61300773361   1.86469856965
H  0.977735746695   6.57635297201   1.48370067384
