138
Lattice="   32.0000000    0.00000000    0.00000000    0.00000000    18.0000000    0.00000000    0.00000000    0.00000000    58.0000000"
H   29.8777458564   2.46759380619   53.5381060743
C   29.0961649781   2.06928439952   52.8836703170
H   28.1276475259   2.18789544747   53.3770817406
H   29.2842364295   1.00500882749   52.7091413014
C   29.1198562978   2.83531128293   51.5785179502
F   30.3876025065   2.72764496268   51.0385348670
F   28.9340953001   4.17844027429   51.8583403470
C   28.0704923254   2.34632581816   50.5671598767
H   27.0864935623   2.44497846708   51.0438718202
H   28.2534556077   1.27690610484   50.4017331945
C   28.0199681131   3.03159751031   49.1954307851
F   29.2356965474   2.87811033933   48.5685237975
F   27.8215782855   4.38008255144   49.3651638206
C   26.9039879295   2.45613764997   48.2999287170
H   25.9504038270   2.55961956439   48.8309197859
H   27.0954777849   1.38464991375   48.1737542766
C   26.7504875786   3.09373393076   46.9109176916
F   27.9479130006   3.01031324324   46.2420361057
F   26.4679387864   4.43150527769   47.0616767050
C   25.6451113388   2.44209810911   46.0492717049
H   24.6821373117   2.56359003591   46.5594538503
H   25.8512271397   1.36784036323   45.9465118807
C   25.5215551292   3.04919334233   44.6442671192
F   26.7040944941   2.88686150080   43.9659622809
F   25.2771417093   4.38792449533   44.7506528937
C   24.4153169430   2.39676975291   43.7639761333
F   23.2039076460   2.42399769908   44.4564674204
H   24.6815440887   1.34360744216   43.6005103009
C   24.2162739565   3.06963981937   42.3740074788
F   25.4243222717   2.99715009487   41.7272948361
F   23.9113469466   4.38834565718   42.5526025148
C   23.1241024787   2.40395121183   41.5202688323
H   22.1696485174   2.49153166636   42.0500771754
H   23.3590123617   1.33791947303   41.4119207831
C   22.9736031487   3.02116600739   40.1194478682
F   24.1705847192   2.89885864596   39.4569808852
F   22.7221722597   4.36613420593   40.2549819927
C   21.8571828850   2.38899651963   39.2655812411
H   20.9067052734   2.51410092624   39.8012374965
H   22.0604905221   1.31806768712   39.1452520711
C   21.7210635676   3.02199937521   37.8709583667
F   22.9025280346   2.90479158258   37.1973092432
F   21.4387557091   4.35777847043   38.0089914465
C   20.5775572865   2.41209693067   37.0096325669
H   19.6276683394   2.56659665727   37.5398756071
F   20.7880206269   1.03855820197   36.8955889321
C   20.4448434567   3.02181807092   35.5864788254
F   21.6453602792   2.92451048283   34.9452896121
F   20.1621731827   4.35375003231   35.7644449743
C   19.3533060550   2.36141019624   34.7311945118
H   18.3954885350   2.44421287688   35.2600985255
H   19.6000771585   1.29895990893   34.6163868679
C   19.1955423341   2.99294462793   33.3379965258
F   20.3926364312   2.89992933834   32.6693081219
F   18.9172417067   4.33098080222   33.4881612009
C   18.0906279019   2.34671119571   32.4855033762
H   17.1381481179   2.40986351333   33.0238807153
H   18.3361761066   1.28811603691   32.3494731816
C   17.9172840874   2.99577268499   31.1056952950
F   19.0987433687   2.91867410749   30.4126564920
F   17.6042778046   4.31540592701   31.2694451507
C   16.8253630692   2.32743154164   30.2142881793
F   15.6113016739   2.38024683974   30.8956023503
H   17.0941960429   1.27297611390   30.0601075206
C   16.6753293376   2.98674476484   28.8132038389
F   17.8570713663   2.76974630447   28.1620997308
F   16.5389453033   4.36097878045   28.9908508680
C   15.4938510284   2.64141942881   27.9486365273
H   14.5240142555   2.79460596281   28.4149975112
C   15.5352396943   2.60142083179   26.6072402050
F   16.6840679877   2.39572806565   25.9406122073
C   14.4379326180   3.07369355559   25.7052213572
H   13.5305043142   3.25448616917   26.2893246144
H   14.7855075852   4.05122892124   25.3381620196
C   14.0637945519   2.26545898097   24.4636921681
F   15.1813446471   1.88963570902   23.7811408348
F   13.4046512826   1.11457958629   24.8338220372
C   13.1018811833   3.09108713733   23.5494735637
H   12.1445457798   3.18973604560   24.0829822887
F   13.6319364882   4.37182049488   23.3816646997
C   12.8386869707   2.51162640034   22.1379558206
F   14.0343651263   2.38964765417   21.4867216125
F   12.3175606414   1.25635563297   22.3262224312
C   11.8859020632   3.37637848486   21.2930341414
H   10.9446680169   3.51350599909   21.8391598051
H   12.3530024443   4.35982790077   21.1715991860
C   11.5630168620   2.78892284148   19.9077406419
F   12.7414706747   2.53863837731   19.2476779148
F   10.9295498063   1.57998734907   20.0904974169
C   10.6819020108   3.68945742395   19.0176933814
H   9.72579805859   3.86526307482   19.5252316886
H   11.1889647435   4.65420424931   18.8832736930
C   10.3854343529   3.10410599459   17.6227881357
F   11.5574084417   2.89787993551   16.9393854517
F   9.76139234552   1.89795715119   17.7543482311
C   9.51221423817   4.03132796866   16.7267155742
F   8.33448335841   4.33868077244   17.4082677373
H   10.0650075654   4.96740120418   16.5673840662
C   9.14552076051   3.43859253672   15.3313727970
F   10.3308556879   3.20361996043   14.6802711722
F   8.50820642977   2.24279939301   15.5050710654
C   8.26578852384   4.36484288521   14.4745630702
H   7.32522605263   4.54176298037   15.0061528429
H   8.77561748262   5.32925452468   14.3604329272
C   7.95265110106   3.80053296408   13.0744938649
F   9.13562918379   3.59404485412   12.4071865688
F   7.35256653000   2.57111614351   13.2153879514
C   7.04125639309   4.69898794014   12.2127809400
H   6.08085154855   4.81208957633   12.7325715636
H   7.50036728802   5.68892051173   12.1066428900
C   6.77978525403   4.13223577865   10.8051378827
F   7.96410033441   4.01691656426   10.1338065069
F   6.22741865127   2.88187474007   10.9160036436
C   5.79416159150   4.97933218042   9.94622071345
H   4.83999423443   5.06275527243   10.4847775784
F   6.31789883355   6.26505656065   9.81171071793
C   5.49518186984   4.39835832120   8.52998586092
F   6.67304576510   4.15164943228   7.88586290639
F   4.85624851871   3.19766415071   8.72437392981
C   4.61379973134   5.31166385928   7.66486508485
H   3.66627391719   5.47622624061   8.19417605046
H   5.11962258436   6.27829703527   7.55313839601
C   4.29455511489   4.74449207233   6.26602550648
F   5.46708094366   4.52535021444   5.58408232447
F   3.68105760760   3.52185070662   6.40484484542
C   3.39060672657   5.66674491006   5.43331413065
H   2.45000196172   5.81621159570   5.97635619957
H   3.88373829876   6.64204993316   5.33526691902
C   3.03358335135   5.16409557326   4.02481384496
F   4.16739366533   4.99215991646   3.26449095994
F   2.39552249544   3.95920513096   4.09882575129
C   2.13903222613   6.17340363007   3.26094271633
F  0.995722877152   6.43827013478   4.02104096381
H   2.71151255162   7.10838214374   3.15518574820
C   1.63756642192   5.78130765507   1.85673721096
F   2.69325268899   5.65044706450  0.993511864957
F  0.924606546492   4.61834032757   1.86721747197
H  0.972738850023   6.57551688877   1.48072569290
